/*---------------------------------------------------------------------------*\
| =========                 |                                                 |
| \\      /  F ield         | OpenFOAM: The Open Source CFD Toolbox           |
|  \\    /   O peration     | Version:  v2012                                 |
|   \\  /    A nd           | Website:  www.openfoam.com                      |
|    \\/     M anipulation  |                                                 |
\*---------------------------------------------------------------------------*/
Build  : _7bdb509494-20201222 OPENFOAM=2012
Arch   : "LSB;label=32;scalar=64"
Exec   : icoFoam
Date   : Feb 08 2021
Time   : 12:47:40
Host   : LAPTOP-I2C9IALL
PID    : 10821
I/O    : uncollated
Case   : /home/fatwaazam/OpenFOAM_files/flat_plate_lowvis
nProcs : 1
trapFpe: Floating point exception trapping enabled (FOAM_SIGFPE).
fileModificationChecking : Monitoring run-time modified files using timeStampMaster (fileModificationSkew 5, maxFileModificationPolls 20)
allowSystemOperations : Allowing user-supplied system call operations

// * * * * * * * * * * * * * * * * * * * * * * * * * * * * * * * * * * * * * //
Create time

Create mesh for time = 0


PISO: Operating solver in PISO mode

Reading transportProperties

Reading field p

Reading field U

Reading/calculating face flux field phi


Starting time loop

Time = 0.00025

Courant Number mean: 0.05 max: 0.125624
smoothSolver:  Solving for Ux, Initial residual = 1, Final residual = 1.30728e-06, No Iterations 2
smoothSolver:  Solving for Uy, Initial residual = 0, Final residual = 0, No Iterations 0
DICPCG:  Solving for p, Initial residual = 1, Final residual = 0.0453824, No Iterations 71
time step continuity errors : sum local = 9.79378e-11, global = -4.34978e-20, cumulative = -4.34978e-20
DICPCG:  Solving for p, Initial residual = 0.0116464, Final residual = 6.94709e-07, No Iterations 84
time step continuity errors : sum local = 1.42153e-14, global = -2.87369e-19, cumulative = -3.30867e-19
ExecutionTime = 0.02 s  ClockTime = 0 s

Time = 0.0005

Courant Number mean: 0.05 max: 0.125626
smoothSolver:  Solving for Ux, Initial residual = 0.224709, Final residual = 2.88788e-07, No Iterations 2
smoothSolver:  Solving for Uy, Initial residual = 0.18336, Final residual = 1.19431e-06, No Iterations 2
DICPCG:  Solving for p, Initial residual = 0.0316325, Final residual = 0.00128024, No Iterations 70
time step continuity errors : sum local = 2.64574e-11, global = -6.23972e-19, cumulative = -9.54839e-19
DICPCG:  Solving for p, Initial residual = 0.00206991, Final residual = 7.99766e-07, No Iterations 80
time step continuity errors : sum local = 1.9313e-14, global = 2.6571e-19, cumulative = -6.89129e-19
ExecutionTime = 0.04 s  ClockTime = 0 s

Time = 0.00075

Courant Number mean: 0.05 max: 0.125629
smoothSolver:  Solving for Ux, Initial residual = 0.13579, Final residual = 1.74762e-07, No Iterations 2
smoothSolver:  Solving for Uy, Initial residual = 0.111171, Final residual = 7.02416e-07, No Iterations 2
DICPCG:  Solving for p, Initial residual = 0.013995, Final residual = 0.000518437, No Iterations 69
time step continuity errors : sum local = 1.26292e-11, global = 6.58103e-20, cumulative = -6.23319e-19
DICPCG:  Solving for p, Initial residual = 0.000881093, Final residual = 7.54951e-07, No Iterations 77
time step continuity errors : sum local = 1.93131e-14, global = 3.63694e-19, cumulative = -2.59625e-19
ExecutionTime = 0.04 s  ClockTime = 0 s

Time = 0.001

Courant Number mean: 0.0500001 max: 0.125631
smoothSolver:  Solving for Ux, Initial residual = 0.0967162, Final residual = 1.24424e-07, No Iterations 2
smoothSolver:  Solving for Uy, Initial residual = 0.0780816, Final residual = 4.8639e-07, No Iterations 2
DICPCG:  Solving for p, Initial residual = 0.0100043, Final residual = 0.000444555, No Iterations 68
time step continuity errors : sum local = 1.14296e-11, global = -1.54008e-19, cumulative = -4.13632e-19
DICPCG:  Solving for p, Initial residual = 0.000826794, Final residual = 9.98958e-07, No Iterations 76
time step continuity errors : sum local = 2.54137e-14, global = -1.08359e-19, cumulative = -5.21992e-19
ExecutionTime = 0.04 s  ClockTime = 0 s

Time = 0.00125

Courant Number mean: 0.0500001 max: 0.125633
smoothSolver:  Solving for Ux, Initial residual = 0.0734904, Final residual = 9.41811e-08, No Iterations 2
smoothSolver:  Solving for Uy, Initial residual = 0.0567035, Final residual = 3.53907e-07, No Iterations 2
DICPCG:  Solving for p, Initial residual = 0.00960847, Final residual = 0.000432715, No Iterations 69
time step continuity errors : sum local = 1.09598e-11, global = -3.37165e-19, cumulative = -8.59157e-19
DICPCG:  Solving for p, Initial residual = 0.000721328, Final residual = 7.83097e-07, No Iterations 76
time step continuity errors : sum local = 1.91959e-14, global = 2.08427e-19, cumulative = -6.5073e-19
ExecutionTime = 0.05 s  ClockTime = 0 s

Time = 0.0015

Courant Number mean: 0.0500001 max: 0.125634
smoothSolver:  Solving for Ux, Initial residual = 0.0583036, Final residual = 7.43872e-08, No Iterations 2
smoothSolver:  Solving for Uy, Initial residual = 0.0433226, Final residual = 2.74716e-07, No Iterations 2
DICPCG:  Solving for p, Initial residual = 0.00786677, Final residual = 0.000373683, No Iterations 66
time step continuity errors : sum local = 9.2196e-12, global = -6.30873e-19, cumulative = -1.2816e-18
DICPCG:  Solving for p, Initial residual = 0.000636425, Final residual = 6.1255e-07, No Iterations 75
time step continuity errors : sum local = 1.52883e-14, global = 1.09494e-20, cumulative = -1.27065e-18
ExecutionTime = 0.05 s  ClockTime = 0 s

Time = 0.00175

Courant Number mean: 0.0500002 max: 0.125636
smoothSolver:  Solving for Ux, Initial residual = 0.0494286, Final residual = 6.29059e-08, No Iterations 2
smoothSolver:  Solving for Uy, Initial residual = 0.0367215, Final residual = 2.32625e-07, No Iterations 2
DICPCG:  Solving for p, Initial residual = 0.00682356, Final residual = 0.0003315, No Iterations 64
time step continuity errors : sum local = 8.2997e-12, global = 3.91928e-19, cumulative = -8.78726e-19
DICPCG:  Solving for p, Initial residual = 0.000546148, Final residual = 9.0798e-07, No Iterations 73
time step continuity errors : sum local = 2.24826e-14, global = -4.49844e-20, cumulative = -9.2371e-19
ExecutionTime = 0.07 s  ClockTime = 0 s

Time = 0.002

Courant Number mean: 0.0500002 max: 0.125637
smoothSolver:  Solving for Ux, Initial residual = 0.0422653, Final residual = 5.36329e-08, No Iterations 2
smoothSolver:  Solving for Uy, Initial residual = 0.0311893, Final residual = 1.98005e-07, No Iterations 2
DICPCG:  Solving for p, Initial residual = 0.00601812, Final residual = 0.000278681, No Iterations 63
time step continuity errors : sum local = 6.90731e-12, global = 3.05371e-19, cumulative = -6.1834e-19
DICPCG:  Solving for p, Initial residual = 0.000462483, Final residual = 8.56037e-07, No Iterations 72
time step continuity errors : sum local = 2.11534e-14, global = -6.05429e-19, cumulative = -1.22377e-18
ExecutionTime = 0.07 s  ClockTime = 0 s

Time = 0.00225

Courant Number mean: 0.0500002 max: 0.125638
smoothSolver:  Solving for Ux, Initial residual = 0.0370393, Final residual = 4.68584e-08, No Iterations 2
smoothSolver:  Solving for Uy, Initial residual = 0.0272357, Final residual = 1.73275e-07, No Iterations 2
DICPCG:  Solving for p, Initial residual = 0.00589295, Final residual = 0.000258083, No Iterations 66
time step continuity errors : sum local = 6.45482e-12, global = 3.07943e-19, cumulative = -9.15825e-19
DICPCG:  Solving for p, Initial residual = 0.000461728, Final residual = 7.27747e-07, No Iterations 74
time step continuity errors : sum local = 1.78933e-14, global = -3.13675e-20, cumulative = -9.47192e-19
ExecutionTime = 0.07 s  ClockTime = 0 s

Time = 0.0025

Courant Number mean: 0.0500003 max: 0.125638
smoothSolver:  Solving for Ux, Initial residual = 0.0328309, Final residual = 4.14007e-08, No Iterations 2
smoothSolver:  Solving for Uy, Initial residual = 0.0240481, Final residual = 1.53326e-07, No Iterations 2
DICPCG:  Solving for p, Initial residual = 0.0056681, Final residual = 0.000283027, No Iterations 65
time step continuity errors : sum local = 7.02716e-12, global = 1.02397e-19, cumulative = -8.44795e-19
DICPCG:  Solving for p, Initial residual = 0.000475635, Final residual = 6.71197e-07, No Iterations 74
time step continuity errors : sum local = 1.64386e-14, global = 2.397e-19, cumulative = -6.05095e-19
ExecutionTime = 0.08 s  ClockTime = 0 s

Time = 0.00275

Courant Number mean: 0.0500003 max: 0.125639
smoothSolver:  Solving for Ux, Initial residual = 0.0294632, Final residual = 3.70256e-08, No Iterations 2
smoothSolver:  Solving for Uy, Initial residual = 0.0215233, Final residual = 1.37518e-07, No Iterations 2
DICPCG:  Solving for p, Initial residual = 0.00557849, Final residual = 0.000266325, No Iterations 66
time step continuity errors : sum local = 6.58761e-12, global = -1.19748e-19, cumulative = -7.24842e-19
DICPCG:  Solving for p, Initial residual = 0.00046289, Final residual = 9.14682e-07, No Iterations 71
time step continuity errors : sum local = 2.22377e-14, global = -4.85633e-19, cumulative = -1.21048e-18
ExecutionTime = 0.08 s  ClockTime = 0 s

Time = 0.003

Courant Number mean: 0.0500003 max: 0.125639
smoothSolver:  Solving for Ux, Initial residual = 0.0266811, Final residual = 3.34072e-08, No Iterations 2
smoothSolver:  Solving for Uy, Initial residual = 0.0194474, Final residual = 1.24508e-07, No Iterations 2
DICPCG:  Solving for p, Initial residual = 0.00550086, Final residual = 0.000261417, No Iterations 66
time step continuity errors : sum local = 6.42778e-12, global = -1.46793e-19, cumulative = -1.35727e-18
DICPCG:  Solving for p, Initial residual = 0.000457713, Final residual = 9.75659e-07, No Iterations 72
time step continuity errors : sum local = 2.36109e-14, global = 7.54115e-20, cumulative = -1.28186e-18
ExecutionTime = 0.1 s  ClockTime = 0 s

Time = 0.00325

Courant Number mean: 0.0500003 max: 0.125639
smoothSolver:  Solving for Ux, Initial residual = 0.0243563, Final residual = 3.03873e-08, No Iterations 2
smoothSolver:  Solving for Uy, Initial residual = 0.0177239, Final residual = 1.13694e-07, No Iterations 2
DICPCG:  Solving for p, Initial residual = 0.00541336, Final residual = 0.000252613, No Iterations 66
time step continuity errors : sum local = 6.17679e-12, global = 4.36112e-19, cumulative = -8.45746e-19
DICPCG:  Solving for p, Initial residual = 0.00044887, Final residual = 6.66143e-07, No Iterations 74
time step continuity errors : sum local = 1.60518e-14, global = 4.62566e-19, cumulative = -3.8318e-19
ExecutionTime = 0.1 s  ClockTime = 0 s

Time = 0.0035

Courant Number mean: 0.0500003 max: 0.125638
smoothSolver:  Solving for Ux, Initial residual = 0.0223863, Final residual = 2.78271e-08, No Iterations 2
smoothSolver:  Solving for Uy, Initial residual = 0.016272, Final residual = 1.0457e-07, No Iterations 2
DICPCG:  Solving for p, Initial residual = 0.00533565, Final residual = 0.000237175, No Iterations 66
time step continuity errors : sum local = 5.7691e-12, global = -4.33945e-19, cumulative = -8.17125e-19
DICPCG:  Solving for p, Initial residual = 0.000432539, Final residual = 7.10368e-07, No Iterations 74
time step continuity errors : sum local = 1.70255e-14, global = 6.05779e-19, cumulative = -2.11346e-19
ExecutionTime = 0.1 s  ClockTime = 0 s

Time = 0.00375

Courant Number mean: 0.0500004 max: 0.125638
smoothSolver:  Solving for Ux, Initial residual = 0.0207001, Final residual = 2.56485e-08, No Iterations 2
smoothSolver:  Solving for Uy, Initial residual = 0.0150359, Final residual = 9.67932e-08, No Iterations 2
DICPCG:  Solving for p, Initial residual = 0.00527523, Final residual = 0.000255596, No Iterations 65
time step continuity errors : sum local = 6.17594e-12, global = -2.94247e-19, cumulative = -5.05593e-19
DICPCG:  Solving for p, Initial residual = 0.000448777, Final residual = 6.34253e-07, No Iterations 74
time step continuity errors : sum local = 1.50989e-14, global = -8.58119e-20, cumulative = -5.91405e-19
ExecutionTime = 0.12 s  ClockTime = 0 s

Time = 0.004

Courant Number mean: 0.0500004 max: 0.125637
smoothSolver:  Solving for Ux, Initial residual = 0.0192433, Final residual = 2.3763e-08, No Iterations 2
smoothSolver:  Solving for Uy, Initial residual = 0.0139742, Final residual = 9.01529e-08, No Iterations 2
DICPCG:  Solving for p, Initial residual = 0.00523024, Final residual = 0.000227866, No Iterations 65
time step continuity errors : sum local = 5.48108e-12, global = -2.64351e-20, cumulative = -6.1784e-19
DICPCG:  Solving for p, Initial residual = 0.000421297, Final residual = 6.06942e-07, No Iterations 74
time step continuity errors : sum local = 1.43981e-14, global = -1.76538e-19, cumulative = -7.94378e-19
ExecutionTime = 0.12 s  ClockTime = 0 s

Time = 0.00425

Courant Number mean: 0.0500004 max: 0.125637
smoothSolver:  Solving for Ux, Initial residual = 0.017975, Final residual = 2.2121e-08, No Iterations 2
smoothSolver:  Solving for Uy, Initial residual = 0.0130568, Final residual = 8.44515e-08, No Iterations 2
DICPCG:  Solving for p, Initial residual = 0.0051664, Final residual = 0.000196348, No Iterations 65
time step continuity errors : sum local = 4.70466e-12, global = 6.59958e-20, cumulative = -7.28382e-19
DICPCG:  Solving for p, Initial residual = 0.000390738, Final residual = 9.33207e-07, No Iterations 73
time step continuity errors : sum local = 2.20786e-14, global = -4.21198e-20, cumulative = -7.70502e-19
ExecutionTime = 0.12 s  ClockTime = 0 s

Time = 0.0045

Courant Number mean: 0.0500004 max: 0.125636
smoothSolver:  Solving for Ux, Initial residual = 0.016863, Final residual = 2.06771e-08, No Iterations 2
smoothSolver:  Solving for Uy, Initial residual = 0.0122659, Final residual = 7.94614e-08, No Iterations 2
DICPCG:  Solving for p, Initial residual = 0.00517732, Final residual = 0.000222037, No Iterations 64
time step continuity errors : sum local = 5.29072e-12, global = -2.42217e-19, cumulative = -1.01272e-18
DICPCG:  Solving for p, Initial residual = 0.000418504, Final residual = 8.8828e-07, No Iterations 73
time step continuity errors : sum local = 2.10435e-14, global = -7.01336e-20, cumulative = -1.08285e-18
ExecutionTime = 0.13 s  ClockTime = 0 s

Time = 0.00475

Courant Number mean: 0.0500004 max: 0.125636
smoothSolver:  Solving for Ux, Initial residual = 0.015882, Final residual = 1.9401e-08, No Iterations 2
smoothSolver:  Solving for Uy, Initial residual = 0.0115721, Final residual = 7.5102e-08, No Iterations 2
DICPCG:  Solving for p, Initial residual = 0.00516525, Final residual = 0.000176998, No Iterations 64
time step continuity errors : sum local = 4.2072e-12, global = 3.37841e-20, cumulative = -1.04907e-18
DICPCG:  Solving for p, Initial residual = 0.000373913, Final residual = 8.14457e-07, No Iterations 73
time step continuity errors : sum local = 1.92478e-14, global = 2.21754e-20, cumulative = -1.02689e-18
ExecutionTime = 0.13 s  ClockTime = 0 s

Time = 0.005

Courant Number mean: 0.0500004 max: 0.125636
smoothSolver:  Solving for Ux, Initial residual = 0.0150117, Final residual = 1.82658e-08, No Iterations 2
smoothSolver:  Solving for Uy, Initial residual = 0.0109624, Final residual = 7.12773e-08, No Iterations 2
DICPCG:  Solving for p, Initial residual = 0.00513122, Final residual = 0.000220469, No Iterations 62
time step continuity errors : sum local = 5.22056e-12, global = -2.16388e-19, cumulative = -1.24328e-18
DICPCG:  Solving for p, Initial residual = 0.000408451, Final residual = 7.60577e-07, No Iterations 73
time step continuity errors : sum local = 1.79364e-14, global = 4.63788e-19, cumulative = -7.79494e-19
ExecutionTime = 0.15 s  ClockTime = 0 s

Time = 0.00525

Courant Number mean: 0.0500005 max: 0.125636
smoothSolver:  Solving for Ux, Initial residual = 0.0142361, Final residual = 1.72506e-08, No Iterations 2
smoothSolver:  Solving for Uy, Initial residual = 0.0104261, Final residual = 6.78572e-08, No Iterations 2
DICPCG:  Solving for p, Initial residual = 0.0050776, Final residual = 0.000207208, No Iterations 61
time step continuity errors : sum local = 4.94369e-12, global = -2.49257e-20, cumulative = -8.0442e-19
DICPCG:  Solving for p, Initial residual = 0.000401746, Final residual = 8.50933e-07, No Iterations 73
time step continuity errors : sum local = 2.01236e-14, global = 2.33311e-19, cumulative = -5.71109e-19
ExecutionTime = 0.15 s  ClockTime = 0 s

Time = 0.0055

Courant Number mean: 0.0500005 max: 0.125636
smoothSolver:  Solving for Ux, Initial residual = 0.0135416, Final residual = 1.63389e-08, No Iterations 2
smoothSolver:  Solving for Uy, Initial residual = 0.0099477, Final residual = 6.47868e-08, No Iterations 2
DICPCG:  Solving for p, Initial residual = 0.00500832, Final residual = 0.000196546, No Iterations 34
time step continuity errors : sum local = 5.74297e-12, global = -9.51944e-20, cumulative = -6.66303e-19
DICPCG:  Solving for p, Initial residual = 0.000386029, Final residual = 9.05348e-07, No Iterations 71
time step continuity errors : sum local = 2.14461e-14, global = 4.85095e-19, cumulative = -1.81208e-19
ExecutionTime = 0.15 s  ClockTime = 0 s

Time = 0.00575

Courant Number mean: 0.0500005 max: 0.125637
smoothSolver:  Solving for Ux, Initial residual = 0.0129171, Final residual = 9.94539e-06, No Iterations 1
smoothSolver:  Solving for Uy, Initial residual = 0.00951889, Final residual = 6.20136e-08, No Iterations 2
DICPCG:  Solving for p, Initial residual = 0.00500695, Final residual = 0.000217115, No Iterations 27
time step continuity errors : sum local = 5.67782e-12, global = -9.01302e-20, cumulative = -2.71338e-19
DICPCG:  Solving for p, Initial residual = 0.000401994, Final residual = 7.74934e-07, No Iterations 73
time step continuity errors : sum local = 1.83809e-14, global = -9.16891e-20, cumulative = -3.63028e-19
ExecutionTime = 0.16 s  ClockTime = 0 s

Time = 0.006

Courant Number mean: 0.0500005 max: 0.125637
smoothSolver:  Solving for Ux, Initial residual = 0.0123532, Final residual = 9.49606e-06, No Iterations 1
smoothSolver:  Solving for Uy, Initial residual = 0.00913376, Final residual = 5.94945e-08, No Iterations 2
DICPCG:  Solving for p, Initial residual = 0.00499, Final residual = 0.000148734, No Iterations 3
time step continuity errors : sum local = 3.53453e-12, global = 2.54193e-19, cumulative = -1.08834e-19
DICPCG:  Solving for p, Initial residual = 0.000322069, Final residual = 7.51803e-07, No Iterations 74
time step continuity errors : sum local = 1.80012e-14, global = 3.04965e-19, cumulative = 1.96131e-19
ExecutionTime = 0.16 s  ClockTime = 0 s

Time = 0.00625

Courant Number mean: 0.0500005 max: 0.125637
smoothSolver:  Solving for Ux, Initial residual = 0.0118424, Final residual = 9.09e-06, No Iterations 1
smoothSolver:  Solving for Uy, Initial residual = 0.0087855, Final residual = 5.72376e-08, No Iterations 2
DICPCG:  Solving for p, Initial residual = 0.00495782, Final residual = 0.000206695, No Iterations 3
time step continuity errors : sum local = 4.93129e-12, global = -6.5291e-19, cumulative = -4.56779e-19
DICPCG:  Solving for p, Initial residual = 0.000369901, Final residual = 7.20706e-07, No Iterations 75
time step continuity errors : sum local = 1.72333e-14, global = 9.92536e-20, cumulative = -3.57526e-19
ExecutionTime = 0.16 s  ClockTime = 0 s

Time = 0.0065

Courant Number mean: 0.0500005 max: 0.125637
smoothSolver:  Solving for Ux, Initial residual = 0.0113779, Final residual = 8.72238e-06, No Iterations 1
smoothSolver:  Solving for Uy, Initial residual = 0.00846842, Final residual = 5.52229e-08, No Iterations 2
DICPCG:  Solving for p, Initial residual = 0.00491836, Final residual = 0.000199319, No Iterations 28
time step continuity errors : sum local = 5.6905e-12, global = 2.85705e-19, cumulative = -7.18202e-20
DICPCG:  Solving for p, Initial residual = 0.000381605, Final residual = 7.82354e-07, No Iterations 72
time step continuity errors : sum local = 1.88764e-14, global = 1.90311e-19, cumulative = 1.18491e-19
ExecutionTime = 0.16 s  ClockTime = 0 s

Time = 0.00675

Courant Number mean: 0.0500005 max: 0.125637
smoothSolver:  Solving for Ux, Initial residual = 0.0109538, Final residual = 8.38683e-06, No Iterations 1
smoothSolver:  Solving for Uy, Initial residual = 0.00818199, Final residual = 5.33972e-08, No Iterations 2
DICPCG:  Solving for p, Initial residual = 0.00487103, Final residual = 0.000232032, No Iterations 29
time step continuity errors : sum local = 6.86899e-12, global = 5.46845e-19, cumulative = 6.65336e-19
DICPCG:  Solving for p, Initial residual = 0.00040184, Final residual = 9.89997e-07, No Iterations 70
time step continuity errors : sum local = 2.39004e-14, global = 1.98609e-21, cumulative = 6.67322e-19
ExecutionTime = 0.18 s  ClockTime = 0 s

Time = 0.007

Courant Number mean: 0.0500005 max: 0.125637
smoothSolver:  Solving for Ux, Initial residual = 0.010565, Final residual = 8.07844e-06, No Iterations 1
smoothSolver:  Solving for Uy, Initial residual = 0.0079207, Final residual = 5.17558e-08, No Iterations 2
DICPCG:  Solving for p, Initial residual = 0.00481384, Final residual = 0.000239838, No Iterations 33
time step continuity errors : sum local = 7.30569e-12, global = -1.19941e-19, cumulative = 5.47381e-19
DICPCG:  Solving for p, Initial residual = 0.00041528, Final residual = 8.13013e-07, No Iterations 71
time step continuity errors : sum local = 1.97762e-14, global = -1.83181e-19, cumulative = 3.64199e-19
ExecutionTime = 0.18 s  ClockTime = 0 s

Time = 0.00725

Courant Number mean: 0.0500006 max: 0.125637
smoothSolver:  Solving for Ux, Initial residual = 0.0102065, Final residual = 7.79354e-06, No Iterations 1
smoothSolver:  Solving for Uy, Initial residual = 0.00768204, Final residual = 5.0219e-08, No Iterations 2
DICPCG:  Solving for p, Initial residual = 0.00478098, Final residual = 0.000228319, No Iterations 34
time step continuity errors : sum local = 7.25589e-12, global = 1.55049e-19, cumulative = 5.19249e-19
DICPCG:  Solving for p, Initial residual = 0.000399814, Final residual = 8.15531e-07, No Iterations 71
time step continuity errors : sum local = 1.99473e-14, global = 1.27704e-19, cumulative = 6.46953e-19
ExecutionTime = 0.18 s  ClockTime = 0 s

Time = 0.0075

Courant Number mean: 0.0500006 max: 0.125637
smoothSolver:  Solving for Ux, Initial residual = 0.00987445, Final residual = 7.53041e-06, No Iterations 1
smoothSolver:  Solving for Uy, Initial residual = 0.00746212, Final residual = 4.88161e-08, No Iterations 2
DICPCG:  Solving for p, Initial residual = 0.00474654, Final residual = 0.000226154, No Iterations 63
time step continuity errors : sum local = 5.5402e-12, global = -8.24044e-20, cumulative = 5.64549e-19
DICPCG:  Solving for p, Initial residual = 0.00040113, Final residual = 9.3244e-07, No Iterations 73
time step continuity errors : sum local = 2.29413e-14, global = 5.80805e-19, cumulative = 1.14535e-18
ExecutionTime = 0.19 s  ClockTime = 0 s

Time = 0.00775

Courant Number mean: 0.0500006 max: 0.125638
smoothSolver:  Solving for Ux, Initial residual = 0.00956553, Final residual = 7.28536e-06, No Iterations 1
smoothSolver:  Solving for Uy, Initial residual = 0.00725633, Final residual = 4.74968e-08, No Iterations 2
DICPCG:  Solving for p, Initial residual = 0.00490702, Final residual = 0.000208504, No Iterations 28
time step continuity errors : sum local = 5.97893e-12, global = -3.58995e-19, cumulative = 7.86359e-19
DICPCG:  Solving for p, Initial residual = 0.000378898, Final residual = 9.44455e-07, No Iterations 70
time step continuity errors : sum local = 2.33172e-14, global = -5.46777e-20, cumulative = 7.31681e-19
ExecutionTime = 0.19 s  ClockTime = 0 s

Time = 0.008

Courant Number mean: 0.0500006 max: 0.125638
smoothSolver:  Solving for Ux, Initial residual = 0.00926676, Final residual = 7.048e-06, No Iterations 1
smoothSolver:  Solving for Uy, Initial residual = 0.00705428, Final residual = 4.62118e-08, No Iterations 2
DICPCG:  Solving for p, Initial residual = 0.00484725, Final residual = 0.000232635, No Iterations 28
time step continuity errors : sum local = 6.78413e-12, global = -3.83653e-20, cumulative = 6.93316e-19
DICPCG:  Solving for p, Initial residual = 0.000398698, Final residual = 8.13635e-07, No Iterations 71
time step continuity errors : sum local = 2.02156e-14, global = -1.58265e-19, cumulative = 5.35051e-19
ExecutionTime = 0.19 s  ClockTime = 0 s

Time = 0.00825

Courant Number mean: 0.0500006 max: 0.125638
smoothSolver:  Solving for Ux, Initial residual = 0.00898793, Final residual = 6.82617e-06, No Iterations 1
smoothSolver:  Solving for Uy, Initial residual = 0.00686577, Final residual = 4.50114e-08, No Iterations 2
DICPCG:  Solving for p, Initial residual = 0.0047764, Final residual = 0.000214707, No Iterations 34
time step continuity errors : sum local = 6.97866e-12, global = -4.41411e-19, cumulative = 9.364e-20
DICPCG:  Solving for p, Initial residual = 0.000377267, Final residual = 8.45221e-07, No Iterations 71
time step continuity errors : sum local = 2.10823e-14, global = 2.27441e-19, cumulative = 3.21081e-19
ExecutionTime = 0.21 s  ClockTime = 0 s

Time = 0.0085

Courant Number mean: 0.0500006 max: 0.125638
smoothSolver:  Solving for Ux, Initial residual = 0.00873169, Final residual = 6.62169e-06, No Iterations 1
smoothSolver:  Solving for Uy, Initial residual = 0.00669672, Final residual = 4.38919e-08, No Iterations 2
DICPCG:  Solving for p, Initial residual = 0.00476299, Final residual = 0.000217265, No Iterations 63
time step continuity errors : sum local = 5.44253e-12, global = 2.43639e-19, cumulative = 5.6472e-19
DICPCG:  Solving for p, Initial residual = 0.00037968, Final residual = 8.1144e-07, No Iterations 73
time step continuity errors : sum local = 2.04081e-14, global = 4.36617e-19, cumulative = 1.00134e-18
ExecutionTime = 0.21 s  ClockTime = 0 s

Time = 0.00875

Courant Number mean: 0.0500006 max: 0.125638
smoothSolver:  Solving for Ux, Initial residual = 0.00849201, Final residual = 6.43046e-06, No Iterations 1
smoothSolver:  Solving for Uy, Initial residual = 0.00653912, Final residual = 4.28261e-08, No Iterations 2
DICPCG:  Solving for p, Initial residual = 0.00483245, Final residual = 0.000216802, No Iterations 63
time step continuity errors : sum local = 5.46942e-12, global = 3.46523e-19, cumulative = 1.34786e-18
DICPCG:  Solving for p, Initial residual = 0.000375015, Final residual = 8.98295e-07, No Iterations 72
time step continuity errors : sum local = 2.27662e-14, global = -2.28331e-19, cumulative = 1.11953e-18
ExecutionTime = 0.21 s  ClockTime = 0 s

Time = 0.009

Courant Number mean: 0.0500007 max: 0.125638
smoothSolver:  Solving for Ux, Initial residual = 0.00826661, Final residual = 6.25052e-06, No Iterations 1
smoothSolver:  Solving for Uy, Initial residual = 0.00638993, Final residual = 4.17983e-08, No Iterations 2
DICPCG:  Solving for p, Initial residual = 0.00489205, Final residual = 0.000214779, No Iterations 63
time step continuity errors : sum local = 5.45872e-12, global = -3.00624e-19, cumulative = 8.18906e-19
DICPCG:  Solving for p, Initial residual = 0.000369332, Final residual = 8.42711e-07, No Iterations 72
time step continuity errors : sum local = 2.15271e-14, global = 2.59032e-19, cumulative = 1.07794e-18
ExecutionTime = 0.23 s  ClockTime = 0 s

Time = 0.00925

Courant Number mean: 0.0500007 max: 0.125638
smoothSolver:  Solving for Ux, Initial residual = 0.0080548, Final residual = 6.08205e-06, No Iterations 1
smoothSolver:  Solving for Uy, Initial residual = 0.00624914, Final residual = 4.08065e-08, No Iterations 2
DICPCG:  Solving for p, Initial residual = 0.00492514, Final residual = 0.000205791, No Iterations 63
time step continuity errors : sum local = 5.27604e-12, global = 2.36817e-19, cumulative = 1.31475e-18
DICPCG:  Solving for p, Initial residual = 0.000357211, Final residual = 9.8297e-07, No Iterations 72
time step continuity errors : sum local = 2.52936e-14, global = -3.18883e-19, cumulative = 9.95872e-19
ExecutionTime = 0.23 s  ClockTime = 0 s

Time = 0.0095

Courant Number mean: 0.0500007 max: 0.125639
smoothSolver:  Solving for Ux, Initial residual = 0.00785827, Final residual = 5.92554e-06, No Iterations 1
smoothSolver:  Solving for Uy, Initial residual = 0.00611835, Final residual = 3.9916e-08, No Iterations 2
DICPCG:  Solving for p, Initial residual = 0.00540867, Final residual = 0.000252734, No Iterations 29
time step continuity errors : sum local = 7.55016e-12, global = 1.67421e-19, cumulative = 1.16329e-18
DICPCG:  Solving for p, Initial residual = 0.000400573, Final residual = 9.41982e-07, No Iterations 73
time step continuity errors : sum local = 2.43145e-14, global = -1.0832e-19, cumulative = 1.05497e-18
ExecutionTime = 0.23 s  ClockTime = 0 s

Time = 0.00975

Courant Number mean: 0.0500007 max: 0.125639
smoothSolver:  Solving for Ux, Initial residual = 0.00764472, Final residual = 5.75611e-06, No Iterations 1
smoothSolver:  Solving for Uy, Initial residual = 0.00596089, Final residual = 3.8915e-08, No Iterations 2
DICPCG:  Solving for p, Initial residual = 0.00544931, Final residual = 0.000199983, No Iterations 63
time step continuity errors : sum local = 5.20938e-12, global = -3.95208e-20, cumulative = 1.01545e-18
DICPCG:  Solving for p, Initial residual = 0.000363978, Final residual = 7.26974e-07, No Iterations 73
time step continuity errors : sum local = 1.87842e-14, global = 1.43179e-19, cumulative = 1.15863e-18
ExecutionTime = 0.24 s  ClockTime = 0 s

Time = 0.01

Courant Number mean: 0.0500007 max: 0.125639
smoothSolver:  Solving for Ux, Initial residual = 0.00742927, Final residual = 5.58532e-06, No Iterations 1
smoothSolver:  Solving for Uy, Initial residual = 0.00579731, Final residual = 3.7909e-08, No Iterations 2
DICPCG:  Solving for p, Initial residual = 0.00511787, Final residual = 0.000228506, No Iterations 61
time step continuity errors : sum local = 5.99074e-12, global = -1.13093e-19, cumulative = 1.04554e-18
DICPCG:  Solving for p, Initial residual = 0.000383224, Final residual = 9.38703e-07, No Iterations 68
time step continuity errors : sum local = 2.44019e-14, global = 3.84188e-19, cumulative = 1.42972e-18
ExecutionTime = 0.24 s  ClockTime = 0 s

Time = 0.01025

Courant Number mean: 0.0500007 max: 0.125639
smoothSolver:  Solving for Ux, Initial residual = 0.00723108, Final residual = 5.42784e-06, No Iterations 1
smoothSolver:  Solving for Uy, Initial residual = 0.00564815, Final residual = 3.69643e-08, No Iterations 2
DICPCG:  Solving for p, Initial residual = 0.00508443, Final residual = 0.000245404, No Iterations 28
time step continuity errors : sum local = 7.60726e-12, global = 2.51468e-20, cumulative = 1.45487e-18
DICPCG:  Solving for p, Initial residual = 0.000385412, Final residual = 9.78705e-07, No Iterations 73
time step continuity errors : sum local = 2.54335e-14, global = -7.87125e-20, cumulative = 1.37616e-18
ExecutionTime = 0.24 s  ClockTime = 0 s

Time = 0.0105

Courant Number mean: 0.0500008 max: 0.125639
smoothSolver:  Solving for Ux, Initial residual = 0.0070634, Final residual = 5.29363e-06, No Iterations 1
smoothSolver:  Solving for Uy, Initial residual = 0.00553171, Final residual = 3.61585e-08, No Iterations 2
DICPCG:  Solving for p, Initial residual = 0.00506003, Final residual = 0.000220529, No Iterations 2
time step continuity errors : sum local = 5.73127e-12, global = 1.77517e-19, cumulative = 1.55368e-18
DICPCG:  Solving for p, Initial residual = 0.000314396, Final residual = 7.08214e-07, No Iterations 75
time step continuity errors : sum local = 1.84625e-14, global = 2.13022e-19, cumulative = 1.7667e-18
ExecutionTime = 0.25 s  ClockTime = 0 s

Time = 0.01075

Courant Number mean: 0.0500008 max: 0.125639
smoothSolver:  Solving for Ux, Initial residual = 0.00689505, Final residual = 5.15911e-06, No Iterations 1
smoothSolver:  Solving for Uy, Initial residual = 0.00541032, Final residual = 3.53117e-08, No Iterations 2
DICPCG:  Solving for p, Initial residual = 0.00512079, Final residual = 0.000246583, No Iterations 2
time step continuity errors : sum local = 6.42642e-12, global = -2.16792e-19, cumulative = 1.54991e-18
DICPCG:  Solving for p, Initial residual = 0.000331399, Final residual = 8.75808e-07, No Iterations 75
time step continuity errors : sum local = 2.28616e-14, global = -8.19941e-20, cumulative = 1.46791e-18
ExecutionTime = 0.25 s  ClockTime = 0 s

Time = 0.011

Courant Number mean: 0.0500008 max: 0.125639
smoothSolver:  Solving for Ux, Initial residual = 0.00673521, Final residual = 5.03145e-06, No Iterations 1
smoothSolver:  Solving for Uy, Initial residual = 0.0052936, Final residual = 3.44819e-08, No Iterations 2
DICPCG:  Solving for p, Initial residual = 0.00534726, Final residual = 0.000237214, No Iterations 3
time step continuity errors : sum local = 6.20707e-12, global = 3.78231e-19, cumulative = 1.84614e-18
DICPCG:  Solving for p, Initial residual = 0.000370479, Final residual = 9.98871e-07, No Iterations 74
time step continuity errors : sum local = 2.63257e-14, global = 2.58027e-19, cumulative = 2.10417e-18
ExecutionTime = 0.25 s  ClockTime = 0 s

Time = 0.01125

Courant Number mean: 0.0500008 max: 0.125639
smoothSolver:  Solving for Ux, Initial residual = 0.00658082, Final residual = 4.90793e-06, No Iterations 1
smoothSolver:  Solving for Uy, Initial residual = 0.00517833, Final residual = 3.36543e-08, No Iterations 2
DICPCG:  Solving for p, Initial residual = 0.00571104, Final residual = 0.000263773, No Iterations 25
time step continuity errors : sum local = 7.50123e-12, global = 1.30003e-19, cumulative = 2.23417e-18
DICPCG:  Solving for p, Initial residual = 0.000431258, Final residual = 8.24697e-07, No Iterations 72
time step continuity errors : sum local = 2.17032e-14, global = 2.45749e-19, cumulative = 2.47992e-18
ExecutionTime = 0.27 s  ClockTime = 0 s

Time = 0.0115

Courant Number mean: 0.0500008 max: 0.125639
smoothSolver:  Solving for Ux, Initial residual = 0.00643054, Final residual = 4.78788e-06, No Iterations 1
smoothSolver:  Solving for Uy, Initial residual = 0.00506351, Final residual = 3.28253e-08, No Iterations 2
DICPCG:  Solving for p, Initial residual = 0.00551046, Final residual = 0.000263227, No Iterations 29
time step continuity errors : sum local = 8.04249e-12, global = -4.60338e-19, cumulative = 2.01958e-18
DICPCG:  Solving for p, Initial residual = 0.000433478, Final residual = 9.38309e-07, No Iterations 72
time step continuity errors : sum local = 2.47842e-14, global = -6.77345e-19, cumulative = 1.34224e-18
ExecutionTime = 0.27 s  ClockTime = 0 s

Time = 0.01175

Courant Number mean: 0.0500008 max: 0.125639
smoothSolver:  Solving for Ux, Initial residual = 0.00628322, Final residual = 4.67035e-06, No Iterations 1
smoothSolver:  Solving for Uy, Initial residual = 0.00494667, Final residual = 3.20237e-08, No Iterations 2
DICPCG:  Solving for p, Initial residual = 0.00498802, Final residual = 0.000232752, No Iterations 26
time step continuity errors : sum local = 6.67856e-12, global = 4.66493e-19, cumulative = 1.80873e-18
DICPCG:  Solving for p, Initial residual = 0.0003955, Final residual = 8.97611e-07, No Iterations 70
time step continuity errors : sum local = 2.37558e-14, global = -7.89597e-20, cumulative = 1.72977e-18
ExecutionTime = 0.27 s  ClockTime = 0 s

Time = 0.012

Courant Number mean: 0.0500009 max: 0.125639
smoothSolver:  Solving for Ux, Initial residual = 0.00614532, Final residual = 4.56064e-06, No Iterations 1
smoothSolver:  Solving for Uy, Initial residual = 0.00483705, Final residual = 3.13002e-08, No Iterations 2
DICPCG:  Solving for p, Initial residual = 0.00494868, Final residual = 0.000209445, No Iterations 26
time step continuity errors : sum local = 5.96225e-12, global = 4.04247e-19, cumulative = 2.13402e-18
DICPCG:  Solving for p, Initial residual = 0.000378232, Final residual = 9.18978e-07, No Iterations 69
time step continuity errors : sum local = 2.43285e-14, global = 5.1776e-19, cumulative = 2.65178e-18
ExecutionTime = 0.27 s  ClockTime = 0 s

Time = 0.01225

Courant Number mean: 0.0500009 max: 0.12564
smoothSolver:  Solving for Ux, Initial residual = 0.00601372, Final residual = 4.45596e-06, No Iterations 1
smoothSolver:  Solving for Uy, Initial residual = 0.0047314, Final residual = 3.06523e-08, No Iterations 2
DICPCG:  Solving for p, Initial residual = 0.00496223, Final residual = 0.000229414, No Iterations 24
time step continuity errors : sum local = 6.27858e-12, global = -5.88242e-19, cumulative = 2.06354e-18
DICPCG:  Solving for p, Initial residual = 0.000399712, Final residual = 8.42028e-07, No Iterations 70
time step continuity errors : sum local = 2.24315e-14, global = 2.25087e-19, cumulative = 2.28862e-18
ExecutionTime = 0.29 s  ClockTime = 0 s

Time = 0.0125

Courant Number mean: 0.0500009 max: 0.12564
smoothSolver:  Solving for Ux, Initial residual = 0.00588859, Final residual = 4.35613e-06, No Iterations 1
smoothSolver:  Solving for Uy, Initial residual = 0.00463466, Final residual = 3.00227e-08, No Iterations 2
DICPCG:  Solving for p, Initial residual = 0.0061821, Final residual = 0.000270043, No Iterations 66
time step continuity errors : sum local = 7.22748e-12, global = -2.89818e-19, cumulative = 1.9988e-18
DICPCG:  Solving for p, Initial residual = 0.000490435, Final residual = 7.62837e-07, No Iterations 71
time step continuity errors : sum local = 2.00778e-14, global = -2.98027e-19, cumulative = 1.70078e-18
ExecutionTime = 0.29 s  ClockTime = 0 s

Time = 0.01275

Courant Number mean: 0.0500009 max: 0.12564
smoothSolver:  Solving for Ux, Initial residual = 0.0057254, Final residual = 4.2283e-06, No Iterations 1
smoothSolver:  Solving for Uy, Initial residual = 0.00449779, Final residual = 2.91713e-08, No Iterations 2
DICPCG:  Solving for p, Initial residual = 0.00595302, Final residual = 0.000276345, No Iterations 65
time step continuity errors : sum local = 7.32368e-12, global = -9.44699e-20, cumulative = 1.60631e-18
DICPCG:  Solving for p, Initial residual = 0.000485161, Final residual = 8.6733e-07, No Iterations 73
time step continuity errors : sum local = 2.26892e-14, global = 1.51554e-19, cumulative = 1.75786e-18
ExecutionTime = 0.29 s  ClockTime = 0 s

Time = 0.013

Courant Number mean: 0.0500009 max: 0.12564
smoothSolver:  Solving for Ux, Initial residual = 0.00558093, Final residual = 4.11485e-06, No Iterations 1
smoothSolver:  Solving for Uy, Initial residual = 0.00438104, Final residual = 2.84078e-08, No Iterations 2
DICPCG:  Solving for p, Initial residual = 0.00618448, Final residual = 0.000189942, No Iterations 64
time step continuity errors : sum local = 4.98285e-12, global = 6.5692e-19, cumulative = 2.41478e-18
DICPCG:  Solving for p, Initial residual = 0.000398706, Final residual = 9.8112e-07, No Iterations 73
time step continuity errors : sum local = 2.54853e-14, global = 1.60082e-19, cumulative = 2.57486e-18
ExecutionTime = 0.3 s  ClockTime = 0 s

Time = 0.01325

Courant Number mean: 0.0500009 max: 0.12564
smoothSolver:  Solving for Ux, Initial residual = 0.00543821, Final residual = 4.00309e-06, No Iterations 1
smoothSolver:  Solving for Uy, Initial residual = 0.00426468, Final residual = 9.80328e-06, No Iterations 1
DICPCG:  Solving for p, Initial residual = 0.00775446, Final residual = 0.000304297, No Iterations 68
time step continuity errors : sum local = 7.95463e-12, global = -7.05971e-19, cumulative = 1.86889e-18
DICPCG:  Solving for p, Initial residual = 0.000587399, Final residual = 7.41493e-07, No Iterations 75
time step continuity errors : sum local = 1.90056e-14, global = 3.83898e-19, cumulative = 2.25279e-18
ExecutionTime = 0.3 s  ClockTime = 0 s

Time = 0.0135

Courant Number mean: 0.0500009 max: 0.125639
smoothSolver:  Solving for Ux, Initial residual = 0.00525144, Final residual = 3.85856e-06, No Iterations 1
smoothSolver:  Solving for Uy, Initial residual = 0.00409629, Final residual = 9.44491e-06, No Iterations 1
DICPCG:  Solving for p, Initial residual = 0.00578251, Final residual = 0.000208365, No Iterations 64
time step continuity errors : sum local = 5.3606e-12, global = -2.64637e-19, cumulative = 1.98815e-18
DICPCG:  Solving for p, Initial residual = 0.000415748, Final residual = 9.02179e-07, No Iterations 70
time step continuity errors : sum local = 2.30707e-14, global = -2.80293e-19, cumulative = 1.70786e-18
ExecutionTime = 0.32 s  ClockTime = 0 s

Time = 0.01375

Courant Number mean: 0.0500009 max: 0.125639
smoothSolver:  Solving for Ux, Initial residual = 0.00514179, Final residual = 3.7722e-06, No Iterations 1
smoothSolver:  Solving for Uy, Initial residual = 0.00401225, Final residual = 9.25822e-06, No Iterations 1
DICPCG:  Solving for p, Initial residual = 0.00575882, Final residual = 0.000286939, No Iterations 33
time step continuity errors : sum local = 8.99161e-12, global = -3.36609e-19, cumulative = 1.37125e-18
DICPCG:  Solving for p, Initial residual = 0.000480539, Final residual = 9.04231e-07, No Iterations 73
time step continuity errors : sum local = 2.31904e-14, global = -4.55694e-19, cumulative = 9.15557e-19
ExecutionTime = 0.32 s  ClockTime = 0 s

Time = 0.014

Courant Number mean: 0.0500009 max: 0.125639
smoothSolver:  Solving for Ux, Initial residual = 0.005039, Final residual = 3.69118e-06, No Iterations 1
smoothSolver:  Solving for Uy, Initial residual = 0.00393603, Final residual = 9.07992e-06, No Iterations 1
DICPCG:  Solving for p, Initial residual = 0.00587454, Final residual = 0.000279408, No Iterations 33
time step continuity errors : sum local = 8.72857e-12, global = 4.50016e-20, cumulative = 9.60559e-19
DICPCG:  Solving for p, Initial residual = 0.000474029, Final residual = 8.25429e-07, No Iterations 73
time step continuity errors : sum local = 2.11851e-14, global = -1.06286e-19, cumulative = 8.54272e-19
ExecutionTime = 0.32 s  ClockTime = 0 s

Time = 0.01425

Courant Number mean: 0.050001 max: 0.125639
smoothSolver:  Solving for Ux, Initial residual = 0.00494022, Final residual = 3.61327e-06, No Iterations 1
smoothSolver:  Solving for Uy, Initial residual = 0.00386224, Final residual = 8.9042e-06, No Iterations 1
DICPCG:  Solving for p, Initial residual = 0.00643272, Final residual = 0.000275863, No Iterations 33
time step continuity errors : sum local = 8.60079e-12, global = -1.17042e-19, cumulative = 7.3723e-19
DICPCG:  Solving for p, Initial residual = 0.000480418, Final residual = 8.77139e-07, No Iterations 73
time step continuity errors : sum local = 2.25107e-14, global = -9.33978e-20, cumulative = 6.43833e-19
ExecutionTime = 0.32 s  ClockTime = 0 s

Time = 0.0145

Courant Number mean: 0.050001 max: 0.125639
smoothSolver:  Solving for Ux, Initial residual = 0.0048451, Final residual = 3.53821e-06, No Iterations 1
smoothSolver:  Solving for Uy, Initial residual = 0.00379056, Final residual = 8.73098e-06, No Iterations 1
DICPCG:  Solving for p, Initial residual = 0.00623276, Final residual = 0.000279024, No Iterations 33
time step continuity errors : sum local = 8.68058e-12, global = 1.26429e-19, cumulative = 7.70261e-19
DICPCG:  Solving for p, Initial residual = 0.000479888, Final residual = 9.37539e-07, No Iterations 73
time step continuity errors : sum local = 2.40081e-14, global = 1.56266e-19, cumulative = 9.26527e-19
ExecutionTime = 0.33 s  ClockTime = 0 s

Time = 0.01475

Courant Number mean: 0.050001 max: 0.125639
smoothSolver:  Solving for Ux, Initial residual = 0.00475307, Final residual = 3.46578e-06, No Iterations 1
smoothSolver:  Solving for Uy, Initial residual = 0.00371919, Final residual = 8.5632e-06, No Iterations 1
DICPCG:  Solving for p, Initial residual = 0.00578333, Final residual = 0.000229594, No Iterations 33
time step continuity errors : sum local = 7.0635e-12, global = 4.90996e-19, cumulative = 1.41752e-18
DICPCG:  Solving for p, Initial residual = 0.000424716, Final residual = 8.29907e-07, No Iterations 73
time step continuity errors : sum local = 2.12109e-14, global = 2.35619e-19, cumulative = 1.65314e-18
ExecutionTime = 0.33 s  ClockTime = 0 s

Time = 0.015

Courant Number mean: 0.050001 max: 0.125639
smoothSolver:  Solving for Ux, Initial residual = 0.00466583, Final residual = 3.3973e-06, No Iterations 1
smoothSolver:  Solving for Uy, Initial residual = 0.00365343, Final residual = 8.41032e-06, No Iterations 1
DICPCG:  Solving for p, Initial residual = 0.00582119, Final residual = 0.000258533, No Iterations 28
time step continuity errors : sum local = 7.61785e-12, global = 2.76627e-19, cumulative = 1.92977e-18
DICPCG:  Solving for p, Initial residual = 0.000449843, Final residual = 9.35364e-07, No Iterations 73
time step continuity errors : sum local = 2.38905e-14, global = -8.50477e-20, cumulative = 1.84472e-18
ExecutionTime = 0.33 s  ClockTime = 0 s

Time = 0.01525

Courant Number mean: 0.050001 max: 0.125639
smoothSolver:  Solving for Ux, Initial residual = 0.00458273, Final residual = 3.33163e-06, No Iterations 1
smoothSolver:  Solving for Uy, Initial residual = 0.00359438, Final residual = 8.26189e-06, No Iterations 1
DICPCG:  Solving for p, Initial residual = 0.00583157, Final residual = 0.000290508, No Iterations 26
time step continuity errors : sum local = 8.0845e-12, global = 6.68334e-21, cumulative = 1.8514e-18
DICPCG:  Solving for p, Initial residual = 0.000476399, Final residual = 9.06824e-07, No Iterations 71
time step continuity errors : sum local = 2.31867e-14, global = -3.40314e-19, cumulative = 1.51109e-18
ExecutionTime = 0.35 s  ClockTime = 0 s

Time = 0.0155

Courant Number mean: 0.050001 max: 0.125639
smoothSolver:  Solving for Ux, Initial residual = 0.00450372, Final residual = 3.26919e-06, No Iterations 1
smoothSolver:  Solving for Uy, Initial residual = 0.00353841, Final residual = 8.11804e-06, No Iterations 1
DICPCG:  Solving for p, Initial residual = 0.00582795, Final residual = 0.000289994, No Iterations 4
time step continuity errors : sum local = 7.38891e-12, global = -1.23534e-19, cumulative = 1.38756e-18
DICPCG:  Solving for p, Initial residual = 0.000424802, Final residual = 8.8382e-07, No Iterations 74
time step continuity errors : sum local = 2.25227e-14, global = 4.04852e-19, cumulative = 1.79241e-18
ExecutionTime = 0.35 s  ClockTime = 0 s

Time = 0.01575

Courant Number mean: 0.050001 max: 0.125639
smoothSolver:  Solving for Ux, Initial residual = 0.00442927, Final residual = 3.21094e-06, No Iterations 1
smoothSolver:  Solving for Uy, Initial residual = 0.00348562, Final residual = 7.98016e-06, No Iterations 1
DICPCG:  Solving for p, Initial residual = 0.00580851, Final residual = 0.00026589, No Iterations 3
time step continuity errors : sum local = 6.77929e-12, global = -3.24075e-19, cumulative = 1.46833e-18
DICPCG:  Solving for p, Initial residual = 0.000411963, Final residual = 7.32578e-07, No Iterations 75
time step continuity errors : sum local = 1.87995e-14, global = 8.82363e-20, cumulative = 1.55657e-18
ExecutionTime = 0.35 s  ClockTime = 0 s

Time = 0.016

Courant Number mean: 0.050001 max: 0.125639
smoothSolver:  Solving for Ux, Initial residual = 0.00436022, Final residual = 3.15645e-06, No Iterations 1
smoothSolver:  Solving for Uy, Initial residual = 0.00343676, Final residual = 7.85517e-06, No Iterations 1
DICPCG:  Solving for p, Initial residual = 0.00576429, Final residual = 0.000265938, No Iterations 28
time step continuity errors : sum local = 8.07948e-12, global = -5.70528e-20, cumulative = 1.49951e-18
DICPCG:  Solving for p, Initial residual = 0.000445515, Final residual = 9.03741e-07, No Iterations 73
time step continuity errors : sum local = 2.32685e-14, global = -4.41766e-20, cumulative = 1.45534e-18
ExecutionTime = 0.35 s  ClockTime = 0 s

Time = 0.01625

Courant Number mean: 0.050001 max: 0.125639
smoothSolver:  Solving for Ux, Initial residual = 0.0042975, Final residual = 3.10651e-06, No Iterations 1
smoothSolver:  Solving for Uy, Initial residual = 0.00339462, Final residual = 7.74683e-06, No Iterations 1
DICPCG:  Solving for p, Initial residual = 0.00598441, Final residual = 0.000234665, No Iterations 62
time step continuity errors : sum local = 6.04541e-12, global = 1.16261e-19, cumulative = 1.5716e-18
DICPCG:  Solving for p, Initial residual = 0.00041879, Final residual = 6.53718e-07, No Iterations 70
time step continuity errors : sum local = 1.6863e-14, global = -9.78378e-20, cumulative = 1.47376e-18
ExecutionTime = 0.36 s  ClockTime = 0 s

Time = 0.0165

Courant Number mean: 0.050001 max: 0.125639
smoothSolver:  Solving for Ux, Initial residual = 0.00424428, Final residual = 3.06363e-06, No Iterations 1
smoothSolver:  Solving for Uy, Initial residual = 0.00336325, Final residual = 7.66856e-06, No Iterations 1
DICPCG:  Solving for p, Initial residual = 0.00657535, Final residual = 0.000282511, No Iterations 64
time step continuity errors : sum local = 7.33388e-12, global = -2.17965e-19, cumulative = 1.2558e-18
DICPCG:  Solving for p, Initial residual = 0.000486791, Final residual = 9.35839e-07, No Iterations 71
time step continuity errors : sum local = 2.4389e-14, global = -1.54757e-19, cumulative = 1.10104e-18
ExecutionTime = 0.36 s  ClockTime = 0 s

Time = 0.01675

Courant Number mean: 0.050001 max: 0.125639
smoothSolver:  Solving for Ux, Initial residual = 0.00421211, Final residual = 3.03613e-06, No Iterations 1
smoothSolver:  Solving for Uy, Initial residual = 0.00335706, Final residual = 7.64173e-06, No Iterations 1
DICPCG:  Solving for p, Initial residual = 0.00540794, Final residual = 0.000258429, No Iterations 29
time step continuity errors : sum local = 8.39678e-12, global = -2.17471e-19, cumulative = 8.83568e-19
DICPCG:  Solving for p, Initial residual = 0.000448129, Final residual = 8.35671e-07, No Iterations 73
time step continuity errors : sum local = 2.18421e-14, global = 1.9141e-19, cumulative = 1.07498e-18
ExecutionTime = 0.36 s  ClockTime = 0 s

Time = 0.017

Courant Number mean: 0.050001 max: 0.125639
smoothSolver:  Solving for Ux, Initial residual = 0.00415534, Final residual = 2.9906e-06, No Iterations 1
smoothSolver:  Solving for Uy, Initial residual = 0.00332323, Final residual = 7.55376e-06, No Iterations 1
DICPCG:  Solving for p, Initial residual = 0.00789929, Final residual = 0.000292812, No Iterations 68
time step continuity errors : sum local = 7.71206e-12, global = -3.81441e-19, cumulative = 6.93538e-19
DICPCG:  Solving for p, Initial residual = 0.000627037, Final residual = 7.52733e-07, No Iterations 73
time step continuity errors : sum local = 1.94525e-14, global = 3.25406e-19, cumulative = 1.01894e-18
ExecutionTime = 0.38 s  ClockTime = 0 s

Time = 0.01725

Courant Number mean: 0.050001 max: 0.125639
smoothSolver:  Solving for Ux, Initial residual = 0.00404456, Final residual = 2.90566e-06, No Iterations 1
smoothSolver:  Solving for Uy, Initial residual = 0.00322606, Final residual = 7.33459e-06, No Iterations 1
DICPCG:  Solving for p, Initial residual = 0.00896586, Final residual = 0.000366679, No Iterations 65
time step continuity errors : sum local = 9.48767e-12, global = 1.01131e-19, cumulative = 1.12007e-18
DICPCG:  Solving for p, Initial residual = 0.000641404, Final residual = 7.4083e-07, No Iterations 74
time step continuity errors : sum local = 1.86364e-14, global = 8.50922e-20, cumulative = 1.20517e-18
ExecutionTime = 0.38 s  ClockTime = 0 s

Time = 0.0175

Courant Number mean: 0.050001 max: 0.125639
smoothSolver:  Solving for Ux, Initial residual = 0.00390857, Final residual = 2.80349e-06, No Iterations 1
smoothSolver:  Solving for Uy, Initial residual = 0.00310124, Final residual = 7.07818e-06, No Iterations 1
DICPCG:  Solving for p, Initial residual = 0.0099924, Final residual = 0.000379954, No Iterations 64
time step continuity errors : sum local = 9.60374e-12, global = 4.37464e-19, cumulative = 1.64263e-18
DICPCG:  Solving for p, Initial residual = 0.000657127, Final residual = 8.44677e-07, No Iterations 39
time step continuity errors : sum local = 2.43303e-14, global = 4.20927e-19, cumulative = 2.06356e-18
ExecutionTime = 0.38 s  ClockTime = 0 s

Time = 0.01775

Courant Number mean: 0.050001 max: 0.125639
smoothSolver:  Solving for Ux, Initial residual = 0.00380117, Final residual = 2.72261e-06, No Iterations 1
smoothSolver:  Solving for Uy, Initial residual = 0.00300757, Final residual = 6.88299e-06, No Iterations 1
DICPCG:  Solving for p, Initial residual = 0.0064161, Final residual = 0.000275502, No Iterations 2
time step continuity errors : sum local = 6.79582e-12, global = 2.9764e-19, cumulative = 2.3612e-18
DICPCG:  Solving for p, Initial residual = 0.000381233, Final residual = 5.86258e-07, No Iterations 75
time step continuity errors : sum local = 1.45501e-14, global = -5.38338e-19, cumulative = 1.82286e-18
ExecutionTime = 0.4 s  ClockTime = 0 s

Time = 0.018

Courant Number mean: 0.050001 max: 0.125639
smoothSolver:  Solving for Ux, Initial residual = 0.00374733, Final residual = 2.6801e-06, No Iterations 1
smoothSolver:  Solving for Uy, Initial residual = 0.00296822, Final residual = 6.78554e-06, No Iterations 1
DICPCG:  Solving for p, Initial residual = 0.00621501, Final residual = 0.000288544, No Iterations 27
time step continuity errors : sum local = 8.21999e-12, global = -1.01948e-20, cumulative = 1.81267e-18
DICPCG:  Solving for p, Initial residual = 0.000479367, Final residual = 9.51561e-07, No Iterations 71
time step continuity errors : sum local = 2.35225e-14, global = 1.76493e-19, cumulative = 1.98916e-18
ExecutionTime = 0.4 s  ClockTime = 0 s

Time = 0.01825

Courant Number mean: 0.050001 max: 0.125639
smoothSolver:  Solving for Ux, Initial residual = 0.0036994, Final residual = 2.64196e-06, No Iterations 1
smoothSolver:  Solving for Uy, Initial residual = 0.00293418, Final residual = 6.69736e-06, No Iterations 1
DICPCG:  Solving for p, Initial residual = 0.00668325, Final residual = 0.000301543, No Iterations 29
time step continuity errors : sum local = 9.19504e-12, global = -1.03153e-19, cumulative = 1.88601e-18
DICPCG:  Solving for p, Initial residual = 0.000499804, Final residual = 8.83069e-07, No Iterations 73
time step continuity errors : sum local = 2.1885e-14, global = -6.41984e-20, cumulative = 1.82181e-18
ExecutionTime = 0.4 s  ClockTime = 0 s

Time = 0.0185

Courant Number mean: 0.050001 max: 0.125639
smoothSolver:  Solving for Ux, Initial residual = 0.00365514, Final residual = 2.60659e-06, No Iterations 1
smoothSolver:  Solving for Uy, Initial residual = 0.00290301, Final residual = 6.62303e-06, No Iterations 1
DICPCG:  Solving for p, Initial residual = 0.00950453, Final residual = 0.000426984, No Iterations 29
time step continuity errors : sum local = 1.32909e-11, global = 2.30648e-19, cumulative = 2.05246e-18
DICPCG:  Solving for p, Initial residual = 0.000680716, Final residual = 8.18738e-07, No Iterations 74
time step continuity errors : sum local = 2.04877e-14, global = -2.36377e-19, cumulative = 1.81608e-18
ExecutionTime = 0.41 s  ClockTime = 0 s

Time = 0.01875

Courant Number mean: 0.050001 max: 0.125639
smoothSolver:  Solving for Ux, Initial residual = 0.00361594, Final residual = 2.57473e-06, No Iterations 1
smoothSolver:  Solving for Uy, Initial residual = 0.00288165, Final residual = 6.56475e-06, No Iterations 1
DICPCG:  Solving for p, Initial residual = 0.00649556, Final residual = 0.000254243, No Iterations 3
time step continuity errors : sum local = 6.35029e-12, global = -3.20006e-19, cumulative = 1.49607e-18
DICPCG:  Solving for p, Initial residual = 0.000394563, Final residual = 9.45124e-07, No Iterations 74
time step continuity errors : sum local = 2.36721e-14, global = -3.89999e-19, cumulative = 1.10607e-18
ExecutionTime = 0.41 s  ClockTime = 0 s

Time = 0.019

Courant Number mean: 0.050001 max: 0.125639
smoothSolver:  Solving for Ux, Initial residual = 0.00356805, Final residual = 2.53696e-06, No Iterations 1
smoothSolver:  Solving for Uy, Initial residual = 0.00285135, Final residual = 6.48303e-06, No Iterations 1
DICPCG:  Solving for p, Initial residual = 0.00612956, Final residual = 0.000252031, No Iterations 27
time step continuity errors : sum local = 7.19539e-12, global = 5.63607e-19, cumulative = 1.66968e-18
DICPCG:  Solving for p, Initial residual = 0.000445669, Final residual = 9.62241e-07, No Iterations 70
time step continuity errors : sum local = 2.4203e-14, global = 1.21996e-19, cumulative = 1.79168e-18
ExecutionTime = 0.41 s  ClockTime = 0 s

Time = 0.01925

Courant Number mean: 0.050001 max: 0.125639
smoothSolver:  Solving for Ux, Initial residual = 0.00352404, Final residual = 2.50201e-06, No Iterations 1
smoothSolver:  Solving for Uy, Initial residual = 0.00282369, Final residual = 6.40554e-06, No Iterations 1
DICPCG:  Solving for p, Initial residual = 0.00614694, Final residual = 0.000280194, No Iterations 28
time step continuity errors : sum local = 8.351e-12, global = -7.48355e-20, cumulative = 1.71684e-18
DICPCG:  Solving for p, Initial residual = 0.000471815, Final residual = 8.32554e-07, No Iterations 73
time step continuity errors : sum local = 2.10815e-14, global = -3.05187e-19, cumulative = 1.41165e-18
ExecutionTime = 0.41 s  ClockTime = 0 s

Time = 0.0195

Courant Number mean: 0.050001 max: 0.125639
smoothSolver:  Solving for Ux, Initial residual = 0.00348275, Final residual = 2.46908e-06, No Iterations 1
smoothSolver:  Solving for Uy, Initial residual = 0.00279742, Final residual = 6.33037e-06, No Iterations 1
DICPCG:  Solving for p, Initial residual = 0.00619433, Final residual = 0.000306814, No Iterations 32
time step continuity errors : sum local = 9.3649e-12, global = 1.80659e-19, cumulative = 1.59231e-18
DICPCG:  Solving for p, Initial residual = 0.00049695, Final residual = 8.71699e-07, No Iterations 72
time step continuity errors : sum local = 2.22622e-14, global = 3.5067e-19, cumulative = 1.94298e-18
ExecutionTime = 0.43 s  ClockTime = 1 s

Time = 0.01975

Courant Number mean: 0.050001 max: 0.125639
smoothSolver:  Solving for Ux, Initial residual = 0.00344376, Final residual = 2.43803e-06, No Iterations 1
smoothSolver:  Solving for Uy, Initial residual = 0.00277219, Final residual = 6.27084e-06, No Iterations 1
DICPCG:  Solving for p, Initial residual = 0.00627716, Final residual = 0.000286077, No Iterations 33
time step continuity errors : sum local = 9.1898e-12, global = -2.5753e-20, cumulative = 1.91723e-18
DICPCG:  Solving for p, Initial residual = 0.000486564, Final residual = 8.67345e-07, No Iterations 73
time step continuity errors : sum local = 2.22519e-14, global = -1.4044e-19, cumulative = 1.77679e-18
ExecutionTime = 0.43 s  ClockTime = 1 s

Time = 0.02

Courant Number mean: 0.050001 max: 0.125639
smoothSolver:  Solving for Ux, Initial residual = 0.00340689, Final residual = 2.40899e-06, No Iterations 1
smoothSolver:  Solving for Uy, Initial residual = 0.00275173, Final residual = 6.22136e-06, No Iterations 1
DICPCG:  Solving for p, Initial residual = 0.00635863, Final residual = 0.000256138, No Iterations 63
time step continuity errors : sum local = 6.60249e-12, global = -7.16392e-19, cumulative = 1.0604e-18
DICPCG:  Solving for p, Initial residual = 0.000476026, Final residual = 9.57699e-07, No Iterations 72
time step continuity errors : sum local = 2.47722e-14, global = -3.3281e-19, cumulative = 7.27588e-19
ExecutionTime = 0.43 s  ClockTime = 1 s

Time = 0.02025

Courant Number mean: 0.050001 max: 0.125639
smoothSolver:  Solving for Ux, Initial residual = 0.00337213, Final residual = 2.38122e-06, No Iterations 1
smoothSolver:  Solving for Uy, Initial residual = 0.00273466, Final residual = 6.17638e-06, No Iterations 1
DICPCG:  Solving for p, Initial residual = 0.00642576, Final residual = 0.000273559, No Iterations 63
time step continuity errors : sum local = 7.10081e-12, global = -1.93815e-19, cumulative = 5.33773e-19
DICPCG:  Solving for p, Initial residual = 0.000494916, Final residual = 6.99202e-07, No Iterations 73
time step continuity errors : sum local = 1.82584e-14, global = 1.93477e-20, cumulative = 5.5312e-19
ExecutionTime = 0.44 s  ClockTime = 1 s

Time = 0.0205

Courant Number mean: 0.050001 max: 0.125639
smoothSolver:  Solving for Ux, Initial residual = 0.00333907, Final residual = 2.35467e-06, No Iterations 1
smoothSolver:  Solving for Uy, Initial residual = 0.00271883, Final residual = 6.13137e-06, No Iterations 1
DICPCG:  Solving for p, Initial residual = 0.00645563, Final residual = 0.000286243, No Iterations 63
time step continuity errors : sum local = 7.48675e-12, global = -7.20559e-20, cumulative = 4.81064e-19
DICPCG:  Solving for p, Initial residual = 0.000509613, Final residual = 7.14447e-07, No Iterations 73
time step continuity errors : sum local = 1.8799e-14, global = 2.29714e-19, cumulative = 7.10779e-19
ExecutionTime = 0.44 s  ClockTime = 1 s

Time = 0.02075

Courant Number mean: 0.050001 max: 0.125639
smoothSolver:  Solving for Ux, Initial residual = 0.00330759, Final residual = 2.3291e-06, No Iterations 1
smoothSolver:  Solving for Uy, Initial residual = 0.00270366, Final residual = 6.08942e-06, No Iterations 1
DICPCG:  Solving for p, Initial residual = 0.00669048, Final residual = 0.000292698, No Iterations 63
time step continuity errors : sum local = 7.71291e-12, global = 9.33592e-20, cumulative = 8.04138e-19
DICPCG:  Solving for p, Initial residual = 0.000523299, Final residual = 7.2449e-07, No Iterations 73
time step continuity errors : sum local = 1.92044e-14, global = -2.04288e-19, cumulative = 5.9985e-19
ExecutionTime = 0.44 s  ClockTime = 1 s

Time = 0.021

Courant Number mean: 0.050001 max: 0.125639
smoothSolver:  Solving for Ux, Initial residual = 0.00327748, Final residual = 2.30439e-06, No Iterations 1
smoothSolver:  Solving for Uy, Initial residual = 0.00268943, Final residual = 6.04855e-06, No Iterations 1
DICPCG:  Solving for p, Initial residual = 0.00651414, Final residual = 0.000301793, No Iterations 63
time step continuity errors : sum local = 8.0207e-12, global = 3.89891e-19, cumulative = 9.89741e-19
DICPCG:  Solving for p, Initial residual = 0.000525456, Final residual = 7.06263e-07, No Iterations 73
time step continuity errors : sum local = 1.88726e-14, global = -1.44908e-19, cumulative = 8.44833e-19
ExecutionTime = 0.46 s  ClockTime = 1 s

Time = 0.02125

Courant Number mean: 0.050001 max: 0.125639
smoothSolver:  Solving for Ux, Initial residual = 0.00324854, Final residual = 2.28058e-06, No Iterations 1
smoothSolver:  Solving for Uy, Initial residual = 0.00267542, Final residual = 6.00724e-06, No Iterations 1
DICPCG:  Solving for p, Initial residual = 0.0064482, Final residual = 0.00030401, No Iterations 63
time step continuity errors : sum local = 8.1519e-12, global = 1.2435e-19, cumulative = 9.69183e-19
DICPCG:  Solving for p, Initial residual = 0.00052428, Final residual = 9.84762e-07, No Iterations 72
time step continuity errors : sum local = 2.64627e-14, global = 1.27697e-19, cumulative = 1.09688e-18
ExecutionTime = 0.46 s  ClockTime = 1 s

Time = 0.0215

Courant Number mean: 0.050001 max: 0.125639
smoothSolver:  Solving for Ux, Initial residual = 0.00322073, Final residual = 2.25742e-06, No Iterations 1
smoothSolver:  Solving for Uy, Initial residual = 0.00266126, Final residual = 5.96776e-06, No Iterations 1
DICPCG:  Solving for p, Initial residual = 0.00643899, Final residual = 0.000300219, No Iterations 63
time step continuity errors : sum local = 8.12602e-12, global = -5.43195e-19, cumulative = 5.53686e-19
DICPCG:  Solving for p, Initial residual = 0.000518671, Final residual = 8.96496e-07, No Iterations 72
time step continuity errors : sum local = 2.43005e-14, global = -2.21366e-19, cumulative = 3.32319e-19
ExecutionTime = 0.46 s  ClockTime = 1 s

Time = 0.02175

Courant Number mean: 0.050001 max: 0.125639
smoothSolver:  Solving for Ux, Initial residual = 0.00319384, Final residual = 2.23504e-06, No Iterations 1
smoothSolver:  Solving for Uy, Initial residual = 0.00264797, Final residual = 5.92819e-06, No Iterations 1
DICPCG:  Solving for p, Initial residual = 0.00643862, Final residual = 0.000290191, No Iterations 63
time step continuity errors : sum local = 7.9291e-12, global = 2.17335e-19, cumulative = 5.49654e-19
DICPCG:  Solving for p, Initial residual = 0.000507356, Final residual = 7.56821e-07, No Iterations 72
time step continuity errors : sum local = 2.07234e-14, global = -5.85493e-19, cumulative = -3.58392e-20
ExecutionTime = 0.47 s  ClockTime = 1 s

Time = 0.022

Courant Number mean: 0.050001 max: 0.125639
smoothSolver:  Solving for Ux, Initial residual = 0.00316781, Final residual = 2.21356e-06, No Iterations 1
smoothSolver:  Solving for Uy, Initial residual = 0.00263457, Final residual = 5.88819e-06, No Iterations 1
DICPCG:  Solving for p, Initial residual = 0.00674392, Final residual = 0.000268106, No Iterations 63
time step continuity errors : sum local = 7.38645e-12, global = -1.23058e-19, cumulative = -1.58897e-19
DICPCG:  Solving for p, Initial residual = 0.000493578, Final residual = 8.52509e-07, No Iterations 71
time step continuity errors : sum local = 2.35607e-14, global = -5.01188e-20, cumulative = -2.09016e-19
ExecutionTime = 0.47 s  ClockTime = 1 s

Time = 0.02225

Courant Number mean: 0.0500011 max: 0.125639
smoothSolver:  Solving for Ux, Initial residual = 0.0031428, Final residual = 2.19316e-06, No Iterations 1
smoothSolver:  Solving for Uy, Initial residual = 0.0026219, Final residual = 5.85006e-06, No Iterations 1
DICPCG:  Solving for p, Initial residual = 0.00673798, Final residual = 0.000329602, No Iterations 62
time step continuity errors : sum local = 9.13108e-12, global = 1.78984e-19, cumulative = -3.00316e-20
DICPCG:  Solving for p, Initial residual = 0.00052315, Final residual = 9.33587e-07, No Iterations 72
time step continuity errors : sum local = 2.6059e-14, global = -2.29969e-19, cumulative = -2.60001e-19
ExecutionTime = 0.49 s  ClockTime = 1 s

Time = 0.0225

Courant Number mean: 0.0500011 max: 0.125639
smoothSolver:  Solving for Ux, Initial residual = 0.00312, Final residual = 2.1746e-06, No Iterations 1
smoothSolver:  Solving for Uy, Initial residual = 0.00261256, Final residual = 5.81354e-06, No Iterations 1
DICPCG:  Solving for p, Initial residual = 0.00624815, Final residual = 0.000305981, No Iterations 34
time step continuity errors : sum local = 1.10549e-11, global = 1.62193e-19, cumulative = -9.78075e-20
DICPCG:  Solving for p, Initial residual = 0.000504678, Final residual = 7.55398e-07, No Iterations 73
time step continuity errors : sum local = 2.12335e-14, global = -4.05304e-19, cumulative = -5.03111e-19
ExecutionTime = 0.49 s  ClockTime = 1 s

Time = 0.02275

Courant Number mean: 0.0500011 max: 0.125639
smoothSolver:  Solving for Ux, Initial residual = 0.00309352, Final residual = 2.15349e-06, No Iterations 1
smoothSolver:  Solving for Uy, Initial residual = 0.00259864, Final residual = 5.7719e-06, No Iterations 1
DICPCG:  Solving for p, Initial residual = 0.00691275, Final residual = 0.00031095, No Iterations 33
time step continuity errors : sum local = 1.09064e-11, global = 2.63458e-19, cumulative = -2.39654e-19
DICPCG:  Solving for p, Initial residual = 0.000528501, Final residual = 9.07757e-07, No Iterations 73
time step continuity errors : sum local = 2.5653e-14, global = -1.20578e-19, cumulative = -3.60231e-19
ExecutionTime = 0.49 s  ClockTime = 1 s

Time = 0.023

Courant Number mean: 0.0500011 max: 0.125639
smoothSolver:  Solving for Ux, Initial residual = 0.00306667, Final residual = 2.13182e-06, No Iterations 1
smoothSolver:  Solving for Uy, Initial residual = 0.0025834, Final residual = 5.72773e-06, No Iterations 1
DICPCG:  Solving for p, Initial residual = 0.00611366, Final residual = 0.000237096, No Iterations 63
time step continuity errors : sum local = 6.73407e-12, global = 3.73657e-19, cumulative = 1.34254e-20
DICPCG:  Solving for p, Initial residual = 0.000443469, Final residual = 9.60062e-07, No Iterations 70
time step continuity errors : sum local = 2.74306e-14, global = 1.35541e-19, cumulative = 1.48966e-19
ExecutionTime = 0.49 s  ClockTime = 1 s

Time = 0.02325

Courant Number mean: 0.0500011 max: 0.12564
smoothSolver:  Solving for Ux, Initial residual = 0.00304376, Final residual = 2.11303e-06, No Iterations 1
smoothSolver:  Solving for Uy, Initial residual = 0.00257104, Final residual = 5.68796e-06, No Iterations 1
DICPCG:  Solving for p, Initial residual = 0.00603232, Final residual = 0.000212865, No Iterations 63
time step continuity errors : sum local = 6.08624e-12, global = 3.42243e-20, cumulative = 1.8319e-19
DICPCG:  Solving for p, Initial residual = 0.000419236, Final residual = 8.16699e-07, No Iterations 71
time step continuity errors : sum local = 2.34497e-14, global = 5.5115e-19, cumulative = 7.3434e-19
ExecutionTime = 0.5 s  ClockTime = 1 s

Time = 0.0235

Courant Number mean: 0.0500011 max: 0.12564
smoothSolver:  Solving for Ux, Initial residual = 0.00302226, Final residual = 2.09532e-06, No Iterations 1
smoothSolver:  Solving for Uy, Initial residual = 0.00255983, Final residual = 5.65301e-06, No Iterations 1
DICPCG:  Solving for p, Initial residual = 0.00607194, Final residual = 0.00019091, No Iterations 63
time step continuity errors : sum local = 5.49429e-12, global = 3.79501e-19, cumulative = 1.11384e-18
DICPCG:  Solving for p, Initial residual = 0.00040021, Final residual = 9.15913e-07, No Iterations 62
time step continuity errors : sum local = 2.65893e-14, global = -2.0749e-19, cumulative = 9.06351e-19
ExecutionTime = 0.5 s  ClockTime = 1 s

Time = 0.02375

Courant Number mean: 0.0500011 max: 0.12564
smoothSolver:  Solving for Ux, Initial residual = 0.00300349, Final residual = 2.07956e-06, No Iterations 1
smoothSolver:  Solving for Uy, Initial residual = 0.00255162, Final residual = 5.6307e-06, No Iterations 1
DICPCG:  Solving for p, Initial residual = 0.00644832, Final residual = 0.000251629, No Iterations 63
time step continuity errors : sum local = 7.35956e-12, global = 2.16588e-19, cumulative = 1.12294e-18
DICPCG:  Solving for p, Initial residual = 0.00046211, Final residual = 8.40623e-07, No Iterations 71
time step continuity errors : sum local = 2.46869e-14, global = 1.63377e-19, cumulative = 1.28632e-18
ExecutionTime = 0.52 s  ClockTime = 1 s

Time = 0.024

Courant Number mean: 0.0500011 max: 0.12564
smoothSolver:  Solving for Ux, Initial residual = 0.00299188, Final residual = 2.06896e-06, No Iterations 1
smoothSolver:  Solving for Uy, Initial residual = 0.00255299, Final residual = 5.62195e-06, No Iterations 1
DICPCG:  Solving for p, Initial residual = 0.00604081, Final residual = 0.000275431, No Iterations 62
time step continuity errors : sum local = 8.11049e-12, global = -3.14641e-19, cumulative = 9.71675e-19
DICPCG:  Solving for p, Initial residual = 0.00046768, Final residual = 9.42636e-07, No Iterations 70
time step continuity errors : sum local = 2.78867e-14, global = 3.35461e-20, cumulative = 1.00522e-18
ExecutionTime = 0.52 s  ClockTime = 1 s

Time = 0.02425

Courant Number mean: 0.0500011 max: 0.12564
smoothSolver:  Solving for Ux, Initial residual = 0.00297194, Final residual = 2.05246e-06, No Iterations 1
smoothSolver:  Solving for Uy, Initial residual = 0.00254558, Final residual = 5.59642e-06, No Iterations 1
DICPCG:  Solving for p, Initial residual = 0.00789213, Final residual = 0.000360011, No Iterations 67
time step continuity errors : sum local = 1.06672e-11, global = 1.6054e-20, cumulative = 1.02128e-18
DICPCG:  Solving for p, Initial residual = 0.000604173, Final residual = 9.88639e-07, No Iterations 45
time step continuity errors : sum local = 3.10483e-14, global = -3.04526e-19, cumulative = 7.16749e-19
ExecutionTime = 0.53 s  ClockTime = 1 s

Time = 0.0245

Courant Number mean: 0.0500012 max: 0.12564
smoothSolver:  Solving for Ux, Initial residual = 0.00290512, Final residual = 2.0029e-06, No Iterations 1
smoothSolver:  Solving for Uy, Initial residual = 0.00248766, Final residual = 5.48514e-06, No Iterations 1
DICPCG:  Solving for p, Initial residual = 0.00655817, Final residual = 0.00030116, No Iterations 30
time step continuity errors : sum local = 1.11279e-11, global = -5.06746e-19, cumulative = 2.10003e-19
DICPCG:  Solving for p, Initial residual = 0.000499801, Final residual = 8.30433e-07, No Iterations 70
time step continuity errors : sum local = 2.4276e-14, global = 4.84695e-19, cumulative = 6.94698e-19
ExecutionTime = 0.53 s  ClockTime = 1 s

Time = 0.02475

Courant Number mean: 0.0500012 max: 0.12564
smoothSolver:  Solving for Ux, Initial residual = 0.00286845, Final residual = 1.97476e-06, No Iterations 1
smoothSolver:  Solving for Uy, Initial residual = 0.00245969, Final residual = 5.42149e-06, No Iterations 1
DICPCG:  Solving for p, Initial residual = 0.00854221, Final residual = 0.00039109, No Iterations 64
time step continuity errors : sum local = 1.14284e-11, global = -1.14264e-19, cumulative = 5.80434e-19
DICPCG:  Solving for p, Initial residual = 0.000642158, Final residual = 9.67875e-07, No Iterations 72
time step continuity errors : sum local = 2.79279e-14, global = -1.46216e-19, cumulative = 4.34218e-19
ExecutionTime = 0.53 s  ClockTime = 1 s

Time = 0.025

Courant Number mean: 0.0500012 max: 0.12564
smoothSolver:  Solving for Ux, Initial residual = 0.00280614, Final residual = 1.92866e-06, No Iterations 1
smoothSolver:  Solving for Uy, Initial residual = 0.00240281, Final residual = 5.29926e-06, No Iterations 1
DICPCG:  Solving for p, Initial residual = 0.00985307, Final residual = 0.000450628, No Iterations 29
time step continuity errors : sum local = 1.54348e-11, global = -3.80125e-19, cumulative = 5.4093e-20
DICPCG:  Solving for p, Initial residual = 0.000704427, Final residual = 9.01247e-07, No Iterations 74
time step continuity errors : sum local = 2.58835e-14, global = -6.28619e-19, cumulative = -5.74526e-19
ExecutionTime = 0.55 s  ClockTime = 1 s

Time = 0.02525

Courant Number mean: 0.0500012 max: 0.12564
smoothSolver:  Solving for Ux, Initial residual = 0.00277037, Final residual = 1.90127e-06, No Iterations 1
smoothSolver:  Solving for Uy, Initial residual = 0.00237443, Final residual = 5.22859e-06, No Iterations 1
DICPCG:  Solving for p, Initial residual = 0.00907715, Final residual = 0.00038626, No Iterations 65
time step continuity errors : sum local = 1.11135e-11, global = -1.58047e-19, cumulative = -7.32573e-19
DICPCG:  Solving for p, Initial residual = 0.000666472, Final residual = 9.34309e-07, No Iterations 74
time step continuity errors : sum local = 2.62248e-14, global = -1.55126e-19, cumulative = -8.877e-19
ExecutionTime = 0.55 s  ClockTime = 1 s

Time = 0.0255

Courant Number mean: 0.0500012 max: 0.12564
smoothSolver:  Solving for Ux, Initial residual = 0.00269292, Final residual = 1.84515e-06, No Iterations 1
smoothSolver:  Solving for Uy, Initial residual = 0.00230039, Final residual = 5.0712e-06, No Iterations 1
DICPCG:  Solving for p, Initial residual = 0.00709744, Final residual = 0.000354324, No Iterations 3
time step continuity errors : sum local = 9.94117e-12, global = -4.05283e-19, cumulative = -1.29298e-18
DICPCG:  Solving for p, Initial residual = 0.000514373, Final residual = 8.00015e-07, No Iterations 74
time step continuity errors : sum local = 2.25597e-14, global = 1.87306e-19, cumulative = -1.10568e-18
ExecutionTime = 0.55 s  ClockTime = 1 s

Time = 0.02575

Courant Number mean: 0.0500012 max: 0.12564
smoothSolver:  Solving for Ux, Initial residual = 0.00266343, Final residual = 1.82229e-06, No Iterations 1
smoothSolver:  Solving for Uy, Initial residual = 0.00227498, Final residual = 5.00891e-06, No Iterations 1
DICPCG:  Solving for p, Initial residual = 0.00763555, Final residual = 0.000331669, No Iterations 27
time step continuity errors : sum local = 1.06566e-11, global = -1.61414e-20, cumulative = -1.12182e-18
DICPCG:  Solving for p, Initial residual = 0.000556415, Final residual = 8.39167e-07, No Iterations 73
time step continuity errors : sum local = 2.37285e-14, global = -2.52636e-19, cumulative = -1.37445e-18
ExecutionTime = 0.56 s  ClockTime = 1 s

Time = 0.026

Courant Number mean: 0.0500012 max: 0.12564
smoothSolver:  Solving for Ux, Initial residual = 0.0026337, Final residual = 1.79918e-06, No Iterations 1
smoothSolver:  Solving for Uy, Initial residual = 0.00224832, Final residual = 4.94882e-06, No Iterations 1
DICPCG:  Solving for p, Initial residual = 0.00970231, Final residual = 0.000457958, No Iterations 28
time step continuity errors : sum local = 1.55127e-11, global = -6.54625e-19, cumulative = -2.02908e-18
DICPCG:  Solving for p, Initial residual = 0.000733365, Final residual = 6.84336e-07, No Iterations 74
time step continuity errors : sum local = 1.92391e-14, global = 5.8899e-20, cumulative = -1.97018e-18
ExecutionTime = 0.56 s  ClockTime = 1 s

Time = 0.02625

Courant Number mean: 0.0500012 max: 0.12564
smoothSolver:  Solving for Ux, Initial residual = 0.0026009, Final residual = 1.77384e-06, No Iterations 1
smoothSolver:  Solving for Uy, Initial residual = 0.00222134, Final residual = 4.88711e-06, No Iterations 1
DICPCG:  Solving for p, Initial residual = 0.00774636, Final residual = 0.000336522, No Iterations 28
time step continuity errors : sum local = 1.10236e-11, global = -4.24316e-19, cumulative = -2.3945e-18
DICPCG:  Solving for p, Initial residual = 0.000564248, Final residual = 9.89079e-07, No Iterations 72
time step continuity errors : sum local = 2.77488e-14, global = -4.47758e-19, cumulative = -2.84226e-18
ExecutionTime = 0.56 s  ClockTime = 1 s

Time = 0.0265

Courant Number mean: 0.0500012 max: 0.12564
smoothSolver:  Solving for Ux, Initial residual = 0.00258021, Final residual = 1.75673e-06, No Iterations 1
smoothSolver:  Solving for Uy, Initial residual = 0.00220703, Final residual = 4.85244e-06, No Iterations 1
DICPCG:  Solving for p, Initial residual = 0.00978834, Final residual = 0.000379637, No Iterations 64
time step continuity errors : sum local = 1.07084e-11, global = -8.23507e-20, cumulative = -2.92461e-18
DICPCG:  Solving for p, Initial residual = 0.000634007, Final residual = 6.80419e-07, No Iterations 74
time step continuity errors : sum local = 1.9331e-14, global = -4.13827e-20, cumulative = -2.96599e-18
ExecutionTime = 0.58 s  ClockTime = 1 s

Time = 0.02675

Courant Number mean: 0.0500012 max: 0.12564
smoothSolver:  Solving for Ux, Initial residual = 0.00257138, Final residual = 1.7478e-06, No Iterations 1
smoothSolver:  Solving for Uy, Initial residual = 0.00220745, Final residual = 4.84206e-06, No Iterations 1
DICPCG:  Solving for p, Initial residual = 0.0122262, Final residual = 0.000464983, No Iterations 67
time step continuity errors : sum local = 1.31746e-11, global = -5.50193e-20, cumulative = -3.02101e-18
DICPCG:  Solving for p, Initial residual = 0.000832087, Final residual = 8.79167e-07, No Iterations 72
time step continuity errors : sum local = 2.41964e-14, global = 1.33893e-19, cumulative = -2.88711e-18
ExecutionTime = 0.58 s  ClockTime = 1 s

Time = 0.027

Courant Number mean: 0.0500012 max: 0.12564
smoothSolver:  Solving for Ux, Initial residual = 0.00248704, Final residual = 1.68765e-06, No Iterations 1
smoothSolver:  Solving for Uy, Initial residual = 0.00212918, Final residual = 4.68769e-06, No Iterations 1
DICPCG:  Solving for p, Initial residual = 0.0107122, Final residual = 0.000499419, No Iterations 67
time step continuity errors : sum local = 1.37175e-11, global = 5.86395e-20, cumulative = -2.82848e-18
DICPCG:  Solving for p, Initial residual = 0.000763803, Final residual = 9.70166e-07, No Iterations 74
time step continuity errors : sum local = 2.72931e-14, global = -5.6075e-19, cumulative = -3.38923e-18
ExecutionTime = 0.59 s  ClockTime = 1 s

Time = 0.02725

Courant Number mean: 0.0500012 max: 0.12564
smoothSolver:  Solving for Ux, Initial residual = 0.00250559, Final residual = 1.69766e-06, No Iterations 1
smoothSolver:  Solving for Uy, Initial residual = 0.00215553, Final residual = 4.70621e-06, No Iterations 1
[...]
time step continuity errors : sum local = 1.759e-11, global = 2.42474e-19, cumulative = 1.56038e-17
DICPCG:  Solving for p, Initial residual = 0.000200868, Final residual = 9.92833e-07, No Iterations 69
time step continuity errors : sum local = 1.15271e-13, global = -3.02941e-19, cumulative = 1.53008e-17
ExecutionTime = 8.76 s  ClockTime = 9 s

Time = 0.4935

Courant Number mean: 0.0500119 max: 0.125661
smoothSolver:  Solving for Ux, Initial residual = 6.45819e-05, Final residual = 2.41246e-08, No Iterations 1
smoothSolver:  Solving for Uy, Initial residual = 0.000505161, Final residual = 2.02014e-07, No Iterations 1
DICPCG:  Solving for p, Initial residual = 0.0034154, Final residual = 0.000137551, No Iterations 26
time step continuity errors : sum local = 1.72505e-11, global = 5.0575e-19, cumulative = 1.58066e-17
DICPCG:  Solving for p, Initial residual = 0.000192651, Final residual = 6.66889e-07, No Iterations 69
time step continuity errors : sum local = 7.756e-14, global = 1.05458e-19, cumulative = 1.5912e-17
ExecutionTime = 8.76 s  ClockTime = 9 s

Time = 0.49375

Courant Number mean: 0.0500119 max: 0.125661
smoothSolver:  Solving for Ux, Initial residual = 6.44594e-05, Final residual = 2.41006e-08, No Iterations 1
smoothSolver:  Solving for Uy, Initial residual = 0.000505011, Final residual = 2.02115e-07, No Iterations 1
DICPCG:  Solving for p, Initial residual = 0.0036051, Final residual = 0.000155705, No Iterations 6
time step continuity errors : sum local = 1.83881e-11, global = -1.15895e-20, cumulative = 1.59004e-17
DICPCG:  Solving for p, Initial residual = 0.000211564, Final residual = 9.35038e-07, No Iterations 70
time step continuity errors : sum local = 1.09098e-13, global = -6.8265e-20, cumulative = 1.58322e-17
ExecutionTime = 8.76 s  ClockTime = 9 s

Time = 0.494

Courant Number mean: 0.0500119 max: 0.125661
smoothSolver:  Solving for Ux, Initial residual = 6.44078e-05, Final residual = 2.41005e-08, No Iterations 1
smoothSolver:  Solving for Uy, Initial residual = 0.000504691, Final residual = 2.01961e-07, No Iterations 1
DICPCG:  Solving for p, Initial residual = 0.00386915, Final residual = 0.000185189, No Iterations 5
time step continuity errors : sum local = 2.151e-11, global = -1.94261e-19, cumulative = 1.56379e-17
DICPCG:  Solving for p, Initial residual = 0.000241568, Final residual = 8.72725e-07, No Iterations 69
time step continuity errors : sum local = 1.02083e-13, global = -6.6334e-19, cumulative = 1.49746e-17
ExecutionTime = 8.77 s  ClockTime = 9 s

Time = 0.49425

Courant Number mean: 0.0500119 max: 0.125661
smoothSolver:  Solving for Ux, Initial residual = 6.4289e-05, Final residual = 2.40826e-08, No Iterations 1
smoothSolver:  Solving for Uy, Initial residual = 0.000503835, Final residual = 2.01914e-07, No Iterations 1
DICPCG:  Solving for p, Initial residual = 0.00333244, Final residual = 0.000154678, No Iterations 7
time step continuity errors : sum local = 1.84882e-11, global = 1.22921e-19, cumulative = 1.50975e-17
DICPCG:  Solving for p, Initial residual = 0.00020541, Final residual = 9.62151e-07, No Iterations 69
time step continuity errors : sum local = 1.1174e-13, global = 3.44095e-19, cumulative = 1.54416e-17
ExecutionTime = 8.77 s  ClockTime = 9 s

Time = 0.4945

Courant Number mean: 0.0500119 max: 0.125661
smoothSolver:  Solving for Ux, Initial residual = 6.42413e-05, Final residual = 2.40796e-08, No Iterations 1
smoothSolver:  Solving for Uy, Initial residual = 0.000503919, Final residual = 2.01821e-07, No Iterations 1
DICPCG:  Solving for p, Initial residual = 0.00326922, Final residual = 0.000135945, No Iterations 26
time step continuity errors : sum local = 1.70626e-11, global = 5.16981e-19, cumulative = 1.59586e-17
DICPCG:  Solving for p, Initial residual = 0.000191822, Final residual = 9.9514e-07, No Iterations 68
time step continuity errors : sum local = 1.15809e-13, global = -1.83592e-20, cumulative = 1.59402e-17
ExecutionTime = 8.77 s  ClockTime = 9 s

Time = 0.49475

Courant Number mean: 0.0500119 max: 0.125661
smoothSolver:  Solving for Ux, Initial residual = 6.41331e-05, Final residual = 2.40653e-08, No Iterations 1
smoothSolver:  Solving for Uy, Initial residual = 0.000503777, Final residual = 2.01898e-07, No Iterations 1
DICPCG:  Solving for p, Initial residual = 0.00317724, Final residual = 0.000141962, No Iterations 7
time step continuity errors : sum local = 1.69746e-11, global = 1.21481e-19, cumulative = 1.60617e-17
DICPCG:  Solving for p, Initial residual = 0.000193734, Final residual = 9.14275e-07, No Iterations 69
time step continuity errors : sum local = 1.06334e-13, global = 5.81076e-20, cumulative = 1.61198e-17
ExecutionTime = 8.77 s  ClockTime = 9 s

Time = 0.495

Courant Number mean: 0.0500119 max: 0.125661
smoothSolver:  Solving for Ux, Initial residual = 6.40764e-05, Final residual = 2.40562e-08, No Iterations 1
smoothSolver:  Solving for Uy, Initial residual = 0.000503932, Final residual = 2.01795e-07, No Iterations 1
DICPCG:  Solving for p, Initial residual = 0.00319905, Final residual = 0.000155522, No Iterations 8
time step continuity errors : sum local = 1.8173e-11, global = 3.60031e-19, cumulative = 1.64798e-17
DICPCG:  Solving for p, Initial residual = 0.000206641, Final residual = 7.90095e-07, No Iterations 69
time step continuity errors : sum local = 9.20401e-14, global = 1.25143e-19, cumulative = 1.6605e-17
ExecutionTime = 8.79 s  ClockTime = 9 s

Time = 0.49525

Courant Number mean: 0.0500119 max: 0.125661
smoothSolver:  Solving for Ux, Initial residual = 6.39709e-05, Final residual = 2.40432e-08, No Iterations 1
smoothSolver:  Solving for Uy, Initial residual = 0.000503819, Final residual = 2.01809e-07, No Iterations 1
DICPCG:  Solving for p, Initial residual = 0.00322701, Final residual = 0.000154674, No Iterations 6
time step continuity errors : sum local = 1.83004e-11, global = 3.97279e-20, cumulative = 1.66447e-17
DICPCG:  Solving for p, Initial residual = 0.000203197, Final residual = 6.5853e-07, No Iterations 70
time step continuity errors : sum local = 7.67238e-14, global = 4.02181e-20, cumulative = 1.66849e-17
ExecutionTime = 8.79 s  ClockTime = 9 s

Time = 0.4955

Courant Number mean: 0.0500119 max: 0.125661
smoothSolver:  Solving for Ux, Initial residual = 6.39024e-05, Final residual = 2.40312e-08, No Iterations 1
smoothSolver:  Solving for Uy, Initial residual = 0.000503813, Final residual = 2.01677e-07, No Iterations 1
DICPCG:  Solving for p, Initial residual = 0.00328277, Final residual = 0.000151884, No Iterations 6
time step continuity errors : sum local = 1.77581e-11, global = -6.3771e-21, cumulative = 1.66786e-17
DICPCG:  Solving for p, Initial residual = 0.000202206, Final residual = 8.36879e-07, No Iterations 68
time step continuity errors : sum local = 9.7837e-14, global = -2.25454e-19, cumulative = 1.64531e-17
ExecutionTime = 8.79 s  ClockTime = 9 s

Time = 0.49575

Courant Number mean: 0.0500119 max: 0.125661
smoothSolver:  Solving for Ux, Initial residual = 6.38007e-05, Final residual = 2.40169e-08, No Iterations 1
smoothSolver:  Solving for Uy, Initial residual = 0.000503577, Final residual = 2.01629e-07, No Iterations 1
DICPCG:  Solving for p, Initial residual = 0.00337412, Final residual = 0.000156776, No Iterations 5
time step continuity errors : sum local = 1.84194e-11, global = 3.51114e-19, cumulative = 1.68042e-17
DICPCG:  Solving for p, Initial residual = 0.000199082, Final residual = 6.61292e-07, No Iterations 71
time step continuity errors : sum local = 7.73335e-14, global = -5.66888e-19, cumulative = 1.62373e-17
ExecutionTime = 8.79 s  ClockTime = 9 s

Time = 0.496

Courant Number mean: 0.050012 max: 0.125661
smoothSolver:  Solving for Ux, Initial residual = 6.372e-05, Final residual = 2.40027e-08, No Iterations 1
smoothSolver:  Solving for Uy, Initial residual = 0.000503392, Final residual = 2.01476e-07, No Iterations 1
DICPCG:  Solving for p, Initial residual = 0.00361317, Final residual = 0.000150579, No Iterations 5
time step continuity errors : sum local = 1.76618e-11, global = -4.06134e-20, cumulative = 1.61967e-17
DICPCG:  Solving for p, Initial residual = 0.000198018, Final residual = 7.20618e-07, No Iterations 71
time step continuity errors : sum local = 8.43592e-14, global = 4.91851e-19, cumulative = 1.66886e-17
ExecutionTime = 8.8 s  ClockTime = 9 s

Time = 0.49625

Courant Number mean: 0.050012 max: 0.125661
smoothSolver:  Solving for Ux, Initial residual = 6.36199e-05, Final residual = 2.3988e-08, No Iterations 1
smoothSolver:  Solving for Uy, Initial residual = 0.000502985, Final residual = 2.01359e-07, No Iterations 1
DICPCG:  Solving for p, Initial residual = 0.00330822, Final residual = 0.000149367, No Iterations 5
time step continuity errors : sum local = 1.75839e-11, global = -3.20411e-19, cumulative = 1.63682e-17
DICPCG:  Solving for p, Initial residual = 0.000190905, Final residual = 7.2567e-07, No Iterations 71
time step continuity errors : sum local = 8.50234e-14, global = 2.59722e-19, cumulative = 1.66279e-17
ExecutionTime = 8.8 s  ClockTime = 9 s

Time = 0.4965

Courant Number mean: 0.050012 max: 0.125661
smoothSolver:  Solving for Ux, Initial residual = 6.35324e-05, Final residual = 2.39719e-08, No Iterations 1
smoothSolver:  Solving for Uy, Initial residual = 0.000503052, Final residual = 2.01278e-07, No Iterations 1
DICPCG:  Solving for p, Initial residual = 0.00368002, Final residual = 0.000175437, No Iterations 4
time step continuity errors : sum local = 2.05835e-11, global = -3.43726e-20, cumulative = 1.65935e-17
DICPCG:  Solving for p, Initial residual = 0.000228324, Final residual = 6.83538e-07, No Iterations 72
time step continuity errors : sum local = 8.0181e-14, global = -2.03675e-19, cumulative = 1.63898e-17
ExecutionTime = 8.8 s  ClockTime = 9 s

Time = 0.49675

Courant Number mean: 0.050012 max: 0.125661
smoothSolver:  Solving for Ux, Initial residual = 6.34357e-05, Final residual = 2.39577e-08, No Iterations 1
smoothSolver:  Solving for Uy, Initial residual = 0.000503515, Final residual = 2.01333e-07, No Iterations 1
DICPCG:  Solving for p, Initial residual = 0.00404485, Final residual = 0.000178304, No Iterations 4
time step continuity errors : sum local = 2.09003e-11, global = -2.83883e-19, cumulative = 1.61059e-17
DICPCG:  Solving for p, Initial residual = 0.000235469, Final residual = 7.97496e-07, No Iterations 72
time step continuity errors : sum local = 9.36227e-14, global = -7.92609e-20, cumulative = 1.60267e-17
ExecutionTime = 8.8 s  ClockTime = 9 s

Time = 0.497

Courant Number mean: 0.050012 max: 0.125661
smoothSolver:  Solving for Ux, Initial residual = 6.33434e-05, Final residual = 2.39418e-08, No Iterations 1
smoothSolver:  Solving for Uy, Initial residual = 0.000504251, Final residual = 2.01422e-07, No Iterations 1
DICPCG:  Solving for p, Initial residual = 0.00324488, Final residual = 0.000147542, No Iterations 5
time step continuity errors : sum local = 1.73567e-11, global = 2.59642e-19, cumulative = 1.62863e-17
DICPCG:  Solving for p, Initial residual = 0.000188805, Final residual = 7.29619e-07, No Iterations 71
time step continuity errors : sum local = 8.54781e-14, global = 6.25332e-19, cumulative = 1.69117e-17
ExecutionTime = 8.82 s  ClockTime = 9 s

Time = 0.49725

Courant Number mean: 0.050012 max: 0.125661
smoothSolver:  Solving for Ux, Initial residual = 6.32414e-05, Final residual = 2.39255e-08, No Iterations 1
smoothSolver:  Solving for Uy, Initial residual = 0.000504046, Final residual = 2.01341e-07, No Iterations 1
DICPCG:  Solving for p, Initial residual = 0.00324604, Final residual = 0.000143225, No Iterations 5
time step continuity errors : sum local = 1.68674e-11, global = 1.77185e-19, cumulative = 1.70888e-17
DICPCG:  Solving for p, Initial residual = 0.000185987, Final residual = 8.21554e-07, No Iterations 51
time step continuity errors : sum local = 1.04784e-13, global = 2.73105e-19, cumulative = 1.73619e-17
ExecutionTime = 8.82 s  ClockTime = 9 s

Time = 0.4975

Courant Number mean: 0.050012 max: 0.125661
smoothSolver:  Solving for Ux, Initial residual = 6.31409e-05, Final residual = 2.39085e-08, No Iterations 1
smoothSolver:  Solving for Uy, Initial residual = 0.000503946, Final residual = 2.01272e-07, No Iterations 1
DICPCG:  Solving for p, Initial residual = 0.00329659, Final residual = 0.000139948, No Iterations 5
time step continuity errors : sum local = 1.65117e-11, global = 2.31814e-19, cumulative = 1.75938e-17
DICPCG:  Solving for p, Initial residual = 0.000184173, Final residual = 9.8901e-07, No Iterations 54
time step continuity errors : sum local = 1.45508e-13, global = -7.20191e-20, cumulative = 1.75217e-17
ExecutionTime = 8.82 s  ClockTime = 9 s

Time = 0.49775

Courant Number mean: 0.050012 max: 0.125661
smoothSolver:  Solving for Ux, Initial residual = 6.30414e-05, Final residual = 2.38929e-08, No Iterations 1
smoothSolver:  Solving for Uy, Initial residual = 0.00050391, Final residual = 2.01225e-07, No Iterations 1
DICPCG:  Solving for p, Initial residual = 0.00337991, Final residual = 0.000140261, No Iterations 5
time step continuity errors : sum local = 1.65265e-11, global = 1.60771e-19, cumulative = 1.76825e-17
DICPCG:  Solving for p, Initial residual = 0.000185029, Final residual = 9.66336e-07, No Iterations 51
time step continuity errors : sum local = 1.35525e-13, global = -5.50092e-20, cumulative = 1.76275e-17
ExecutionTime = 8.82 s  ClockTime = 9 s

Time = 0.498

Courant Number mean: 0.050012 max: 0.125661
smoothSolver:  Solving for Ux, Initial residual = 6.29466e-05, Final residual = 2.38761e-08, No Iterations 1
smoothSolver:  Solving for Uy, Initial residual = 0.000503946, Final residual = 2.01164e-07, No Iterations 1
DICPCG:  Solving for p, Initial residual = 0.00355982, Final residual = 0.000175693, No Iterations 4
time step continuity errors : sum local = 2.06717e-11, global = 5.5182e-22, cumulative = 1.76281e-17
DICPCG:  Solving for p, Initial residual = 0.000225943, Final residual = 7.05919e-07, No Iterations 72
time step continuity errors : sum local = 8.31305e-14, global = -3.85926e-19, cumulative = 1.72421e-17
ExecutionTime = 8.82 s  ClockTime = 9 s

Time = 0.49825

Courant Number mean: 0.050012 max: 0.125661
smoothSolver:  Solving for Ux, Initial residual = 6.28513e-05, Final residual = 2.38576e-08, No Iterations 1
smoothSolver:  Solving for Uy, Initial residual = 0.000504056, Final residual = 2.01116e-07, No Iterations 1
DICPCG:  Solving for p, Initial residual = 0.00359489, Final residual = 0.000156575, No Iterations 5
time step continuity errors : sum local = 1.85524e-11, global = -2.97938e-19, cumulative = 1.69442e-17
DICPCG:  Solving for p, Initial residual = 0.000201164, Final residual = 7.37598e-07, No Iterations 71
time step continuity errors : sum local = 8.69068e-14, global = -5.53487e-19, cumulative = 1.63907e-17
ExecutionTime = 8.84 s  ClockTime = 9 s

Time = 0.4985

Courant Number mean: 0.050012 max: 0.125661
smoothSolver:  Solving for Ux, Initial residual = 6.27511e-05, Final residual = 2.38383e-08, No Iterations 1
smoothSolver:  Solving for Uy, Initial residual = 0.000503719, Final residual = 2.00978e-07, No Iterations 1
DICPCG:  Solving for p, Initial residual = 0.00371051, Final residual = 0.000157441, No Iterations 5
time step continuity errors : sum local = 1.8627e-11, global = 5.9055e-20, cumulative = 1.64498e-17
DICPCG:  Solving for p, Initial residual = 0.000200312, Final residual = 8.78523e-07, No Iterations 51
time step continuity errors : sum local = 1.17364e-13, global = 1.04136e-19, cumulative = 1.65539e-17
ExecutionTime = 8.84 s  ClockTime = 9 s

Time = 0.49875

Courant Number mean: 0.050012 max: 0.125661
smoothSolver:  Solving for Ux, Initial residual = 6.26539e-05, Final residual = 2.38183e-08, No Iterations 1
smoothSolver:  Solving for Uy, Initial residual = 0.000503521, Final residual = 2.00893e-07, No Iterations 1
DICPCG:  Solving for p, Initial residual = 0.00424349, Final residual = 0.000209886, No Iterations 4
time step continuity errors : sum local = 2.47799e-11, global = -2.51237e-19, cumulative = 1.63027e-17
DICPCG:  Solving for p, Initial residual = 0.000262041, Final residual = 9.49242e-07, No Iterations 51
time step continuity errors : sum local = 1.1623e-13, global = -7.37246e-20, cumulative = 1.62289e-17
ExecutionTime = 8.84 s  ClockTime = 9 s

Time = 0.499

Courant Number mean: 0.050012 max: 0.125661
smoothSolver:  Solving for Ux, Initial residual = 6.25487e-05, Final residual = 2.37977e-08, No Iterations 1
smoothSolver:  Solving for Uy, Initial residual = 0.000502813, Final residual = 2.0073e-07, No Iterations 1
DICPCG:  Solving for p, Initial residual = 0.00420845, Final residual = 0.000171543, No Iterations 4
time step continuity errors : sum local = 2.02805e-11, global = -3.45144e-19, cumulative = 1.58838e-17
DICPCG:  Solving for p, Initial residual = 0.000223949, Final residual = 9.44327e-07, No Iterations 54
time step continuity errors : sum local = 1.39343e-13, global = -4.01005e-19, cumulative = 1.54828e-17
ExecutionTime = 8.84 s  ClockTime = 9 s

Time = 0.49925

Courant Number mean: 0.0500121 max: 0.125661
smoothSolver:  Solving for Ux, Initial residual = 6.24514e-05, Final residual = 2.37784e-08, No Iterations 1
smoothSolver:  Solving for Uy, Initial residual = 0.000503057, Final residual = 2.00767e-07, No Iterations 1
DICPCG:  Solving for p, Initial residual = 0.00402934, Final residual = 0.00017726, No Iterations 4
time step continuity errors : sum local = 2.09878e-11, global = -1.38841e-19, cumulative = 1.53439e-17
DICPCG:  Solving for p, Initial residual = 0.000245211, Final residual = 9.63801e-07, No Iterations 51
time step continuity errors : sum local = 1.17717e-13, global = -6.73438e-20, cumulative = 1.52766e-17
ExecutionTime = 8.84 s  ClockTime = 9 s

Time = 0.4995

Courant Number mean: 0.0500121 max: 0.125661
smoothSolver:  Solving for Ux, Initial residual = 6.23503e-05, Final residual = 2.3756e-08, No Iterations 1
smoothSolver:  Solving for Uy, Initial residual = 0.000501633, Final residual = 2.00477e-07, No Iterations 1
DICPCG:  Solving for p, Initial residual = 0.00331966, Final residual = 0.000145243, No Iterations 5
time step continuity errors : sum local = 1.72363e-11, global = 1.12005e-19, cumulative = 1.53886e-17
DICPCG:  Solving for p, Initial residual = 0.000188668, Final residual = 7.5103e-07, No Iterations 71
time step continuity errors : sum local = 8.89358e-14, global = 5.38468e-19, cumulative = 1.59271e-17
ExecutionTime = 8.85 s  ClockTime = 9 s

Time = 0.49975

Courant Number mean: 0.0500121 max: 0.125661
smoothSolver:  Solving for Ux, Initial residual = 6.225e-05, Final residual = 2.37379e-08, No Iterations 1
smoothSolver:  Solving for Uy, Initial residual = 0.000501578, Final residual = 2.00457e-07, No Iterations 1
DICPCG:  Solving for p, Initial residual = 0.00481624, Final residual = 0.000220637, No Iterations 3
time step continuity errors : sum local = 2.6143e-11, global = -1.45759e-19, cumulative = 1.57813e-17
DICPCG:  Solving for p, Initial residual = 0.000271376, Final residual = 6.61874e-07, No Iterations 73
time step continuity errors : sum local = 7.81848e-14, global = 5.2873e-20, cumulative = 1.58342e-17
ExecutionTime = 8.85 s  ClockTime = 9 s

Time = 0.5

Courant Number mean: 0.0500121 max: 0.125661
smoothSolver:  Solving for Ux, Initial residual = 6.21523e-05, Final residual = 2.37187e-08, No Iterations 1
smoothSolver:  Solving for Uy, Initial residual = 0.000501511, Final residual = 2.00437e-07, No Iterations 1
DICPCG:  Solving for p, Initial residual = 0.00460158, Final residual = 0.000224592, No Iterations 3
time step continuity errors : sum local = 2.6517e-11, global = -6.71239e-19, cumulative = 1.51629e-17
DICPCG:  Solving for p, Initial residual = 0.000279812, Final residual = 7.00137e-07, No Iterations 73
time step continuity errors : sum local = 8.25674e-14, global = 2.31011e-19, cumulative = 1.5394e-17
ExecutionTime = 8.85 s  ClockTime = 9 s

End

